BEB
  -OEChem-11082419093D

 88 93  0     1  0  0  0  0  0999 V2000
   -0.7140    4.3220    1.2770 C   0  0  0  0  0  0  0  0  0  0  0  0
    0.0630    5.0730    2.1390 C   0  0  0  0  0  0  0  0  0  0  0  0
   -0.5290    5.7600    3.1830 C   0  0  0  0  0  0  0  0  0  0  0  0
   -1.8980    5.6950    3.3650 C   0  0  0  0  0  0  0  0  0  0  0  0
   -2.6750    4.9440    2.5030 C   0  0  0  0  0  0  0  0  0  0  0  0
   -2.0840    4.2620    1.4560 C   0  0  0  0  0  0  0  0  0  0  0  0
    0.7280   -4.3130    1.2750 C   0  0  0  0  0  0  0  0  0  0  0  0
   -0.0470   -5.0860    2.1190 C   0  0  0  0  0  0  0  0  0  0  0  0
    0.5430   -5.7710    3.1650 C   0  0  0  0  0  0  0  0  0  0  0  0
    1.9080   -5.6830    3.3660 C   0  0  0  0  0  0  0  0  0  0  0  0
    2.6830   -4.9110    2.5210 C   0  0  0  0  0  0  0  0  0  0  0  0
    2.0940   -4.2300    1.4730 C   0  0  0  0  0  0  0  0  0  0  0  0
    0.0850   -3.5660    0.1350 C   0  0  0  0  0  0  0  0  0  0  0  0
   -0.3050   -2.2650    0.5780 O   0  0  0  0  0  0  0  0  0  0  0  0
   -0.9990   -1.6500   -0.5090 C   0  0  2  0  0  0  0  0  0  0  0  0
   -0.7560   -0.1390   -0.4800 C   0  0  1  0  0  0  0  0  0  0  0  0
    0.7490    0.1350   -0.4760 C   0  0  2  0  0  0  0  0  0  0  0  0
    0.9920    1.6450   -0.5060 C   0  0  2  0  0  0  0  0  0  0  0  0
    2.4680    1.9190   -0.3700 C   0  0  0  0  0  0  0  0  0  0  0  0
    2.8890    2.4990    0.6080 O   0  0  0  0  0  0  0  0  0  0  0  0
    3.3200    1.5190   -1.3350 N   0  0  0  0  0  0  0  0  0  0  0  0
    0.2920    2.2620    0.5760 O   0  0  0  0  0  0  0  0  0  0  0  0
   -0.0690    3.5740    0.1390 C   0  0  0  0  0  0  0  0  0  0  0  0
    1.3460   -0.4670   -1.6270 O   0  0  0  0  0  0  0  0  0  0  0  0
   -1.3470    0.4610   -1.6350 O   0  0  0  0  0  0  0  0  0  0  0  0
   -2.4760   -1.9230   -0.3820 C   0  0  0  0  0  0  0  0  0  0  0  0
   -2.9030   -2.5020    0.5940 O   0  0  0  0  0  0  0  0  0  0  0  0
   -3.3210   -1.5250   -1.3530 N   0  0  0  0  0  0  0  0  0  0  0  0
   -4.7560   -1.7910   -1.2300 C   0  0  1  0  0  0  0  0  0  0  0  0
   -5.4330   -0.6800   -0.4450 C   0  0  0  0  0  0  0  0  0  0  0  0
   -6.6160   -0.3230   -1.0630 C   0  0  0  0  0  0  0  0  0  0  0  0
   -5.0400   -0.0360    0.7170 C   0  0  0  0  0  0  0  0  0  0  0  0
   -5.8280    0.9610    1.2590 C   0  0  0  0  0  0  0  0  0  0  0  0
   -7.0120    1.3180    0.6400 C   0  0  0  0  0  0  0  0  0  0  0  0
   -5.4320   -1.7650   -2.6170 C   0  0  2  0  0  0  0  0  0  0  0  0
   -4.7080   -0.9260   -3.5190 O   0  0  0  0  0  0  0  0  0  0  0  0
   -7.4050    0.6760   -0.5180 C   0  0  0  0  0  0  0  0  0  0  0  0
   -6.8200   -1.1660   -2.3040 C   0  0  0  0  0  0  0  0  0  0  0  0
    4.7540    1.7850   -1.2020 C   0  0  1  0  0  0  0  0  0  0  0  0
    5.4290    0.6630   -0.4430 C   0  0  0  0  0  0  0  0  0  0  0  0
    6.6140    0.3220   -1.0710 C   0  0  0  0  0  0  0  0  0  0  0  0
    5.0380   -0.0090    0.7020 C   0  0  0  0  0  0  0  0  0  0  0  0
    5.8270   -1.0160    1.2210 C   0  0  0  0  0  0  0  0  0  0  0  0
    7.0120   -1.3570    0.5950 C   0  0  0  0  0  0  0  0  0  0  0  0
    5.4270    1.7970   -2.5910 C   0  0  2  0  0  0  0  0  0  0  0  0
    4.7030    0.9810   -3.5140 O   0  0  0  0  0  0  0  0  0  0  0  0
    7.4040   -0.6880   -0.5480 C   0  0  0  0  0  0  0  0  0  0  0  0
    6.8160    1.1930   -2.2920 C   0  0  0  0  0  0  0  0  0  0  0  0
    1.1320    5.1240    1.9970 H   0  0  0  0  0  0  0  0  0  0  0  0
    0.0780    6.3460    3.8560 H   0  0  0  0  0  0  0  0  0  0  0  0
   -2.3600    6.2310    4.1810 H   0  0  0  0  0  0  0  0  0  0  0  0
   -3.7440    4.8930    2.6450 H   0  0  0  0  0  0  0  0  0  0  0  0
   -2.6910    3.6750    0.7830 H   0  0  0  0  0  0  0  0  0  0  0  0
   -1.1130   -5.1540    1.9620 H   0  0  0  0  0  0  0  0  0  0  0  0
   -0.0630   -6.3740    3.8260 H   0  0  0  0  0  0  0  0  0  0  0  0
    2.3690   -6.2180    4.1840 H   0  0  0  0  0  0  0  0  0  0  0  0
    3.7490   -4.8420    2.6790 H   0  0  0  0  0  0  0  0  0  0  0  0
    2.6990   -3.6260    0.8130 H   0  0  0  0  0  0  0  0  0  0  0  0
   -0.7940   -4.1130   -0.2070 H   0  0  0  0  0  0  0  0  0  0  0  0
    0.7970   -3.4730   -0.6850 H   0  0  0  0  0  0  0  0  0  0  0  0
   -0.6340   -2.0580   -1.4520 H   0  0  0  0  0  0  0  0  0  0  0  0
   -1.2050    0.2840    0.4190 H   0  0  0  0  0  0  0  0  0  0  0  0
    1.1930   -0.2870    0.4250 H   0  0  0  0  0  0  0  0  0  0  0  0
    0.6330    2.0520   -1.4510 H   0  0  0  0  0  0  0  0  0  0  0  0
    2.9830    1.0550   -2.1170 H   0  0  0  0  0  0  0  0  0  0  0  0
    0.8240    4.1070   -0.1860 H   0  0  0  0  0  0  0  0  0  0  0  0
   -0.7720    3.5000   -0.6910 H   0  0  0  0  0  0  0  0  0  0  0  0
    0.9260   -0.0660   -2.4010 H   0  0  0  0  0  0  0  0  0  0  0  0
   -0.9230    0.0600   -2.4060 H   0  0  0  0  0  0  0  0  0  0  0  0
   -2.9790   -1.0620   -2.1340 H   0  0  0  0  0  0  0  0  0  0  0  0
   -4.9220   -2.7520   -0.7430 H   0  0  0  0  0  0  0  0  0  0  0  0
   -4.1160   -0.3140    1.2000 H   0  0  0  0  0  0  0  0  0  0  0  0
   -5.5190    1.4610    2.1650 H   0  0  0  0  0  0  0  0  0  0  0  0
   -7.6290    2.0970    1.0630 H   0  0  0  0  0  0  0  0  0  0  0  0
   -5.5280   -2.7730   -3.0200 H   0  0  0  0  0  0  0  0  0  0  0  0
   -5.2020   -0.9180   -4.3510 H   0  0  0  0  0  0  0  0  0  0  0  0
   -8.3300    0.9560   -1.0010 H   0  0  0  0  0  0  0  0  0  0  0  0
   -7.1590   -0.5440   -3.1320 H   0  0  0  0  0  0  0  0  0  0  0  0
   -7.5390   -1.9610   -2.1080 H   0  0  0  0  0  0  0  0  0  0  0  0
    4.9160    2.7360   -0.6950 H   0  0  0  0  0  0  0  0  0  0  0  0
    4.1120    0.2560    1.1920 H   0  0  0  0  0  0  0  0  0  0  0  0
    5.5190   -1.5380    2.1150 H   0  0  0  0  0  0  0  0  0  0  0  0
    7.6300   -2.1440    1.0000 H   0  0  0  0  0  0  0  0  0  0  0  0
    5.5210    2.8160   -2.9680 H   0  0  0  0  0  0  0  0  0  0  0  0
    5.1710    1.0300   -4.3580 H   0  0  0  0  0  0  0  0  0  0  0  0
    8.3300   -0.9550   -1.0370 H   0  0  0  0  0  0  0  0  0  0  0  0
    7.1560    0.5910   -3.1340 H   0  0  0  0  0  0  0  0  0  0  0  0
    7.5340    1.9840   -2.0770 H   0  0  0  0  0  0  0  0  0  0  0  0
  1  2  2  0  0  0  0
  1  6  1  0  0  0  0
  1 23  1  0  0  0  0
  2  3  1  0  0  0  0
  2 49  1  0  0  0  0
  3  4  2  0  0  0  0
  3 50  1  0  0  0  0
  4  5  1  0  0  0  0
  4 51  1  0  0  0  0
  5  6  2  0  0  0  0
  5 52  1  0  0  0  0
  6 53  1  0  0  0  0
  7  8  2  0  0  0  0
  7 12  1  0  0  0  0
  7 13  1  0  0  0  0
  8  9  1  0  0  0  0
  8 54  1  0  0  0  0
  9 10  2  0  0  0  0
  9 55  1  0  0  0  0
 10 11  1  0  0  0  0
 10 56  1  0  0  0  0
 11 12  2  0  0  0  0
 11 57  1  0  0  0  0
 12 58  1  0  0  0  0
 13 14  1  0  0  0  0
 13 59  1  0  0  0  0
 13 60  1  0  0  0  0
 14 15  1  0  0  0  0
 15 16  1  0  0  0  0
 15 26  1  0  0  0  0
 15 61  1  0  0  0  0
 16 17  1  0  0  0  0
 16 25  1  0  0  0  0
 16 62  1  0  0  0  0
 17 18  1  0  0  0  0
 17 24  1  0  0  0  0
 17 63  1  0  0  0  0
 18 19  1  0  0  0  0
 18 22  1  0  0  0  0
 18 64  1  0  0  0  0
 19 20  2  0  0  0  0
 19 21  1  0  0  0  0
 21 39  1  0  0  0  0
 21 65  1  0  0  0  0
 22 23  1  0  0  0  0
 23 66  1  0  0  0  0
 23 67  1  0  0  0  0
 24 68  1  0  0  0  0
 25 69  1  0  0  0  0
 26 27  2  0  0  0  0
 26 28  1  0  0  0  0
 28 29  1  0  0  0  0
 28 70  1  0  0  0  0
 29 30  1  0  0  0  0
 29 35  1  0  0  0  0
 29 71  1  0  0  0  0
 30 31  2  0  0  0  0
 30 32  1  0  0  0  0
 31 37  1  0  0  0  0
 31 38  1  0  0  0  0
 32 33  2  0  0  0  0
 32 72  1  0  0  0  0
 33 34  1  0  0  0  0
 33 73  1  0  0  0  0
 34 37  2  0  0  0  0
 34 74  1  0  0  0  0
 35 36  1  0  0  0  0
 35 38  1  0  0  0  0
 35 75  1  0  0  0  0
 36 76  1  0  0  0  0
 37 77  1  0  0  0  0
 38 78  1  0  0  0  0
 38 79  1  0  0  0  0
 39 40  1  0  0  0  0
 39 45  1  0  0  0  0
 39 80  1  0  0  0  0
 40 41  2  0  0  0  0
 40 42  1  0  0  0  0
 41 47  1  0  0  0  0
 41 48  1  0  0  0  0
 42 43  2  0  0  0  0
 42 81  1  0  0  0  0
 43 44  1  0  0  0  0
 43 82  1  0  0  0  0
 44 47  2  0  0  0  0
 44 83  1  0  0  0  0
 45 46  1  0  0  0  0
 45 48  1  0  0  0  0
 45 84  1  0  0  0  0
 46 85  1  0  0  0  0
 47 86  1  0  0  0  0
 48 87  1  0  0  0  0
 48 88  1  0  0  0  0
M  END
> <OPENEYE_ISO_SMILES>
c1ccc(cc1)CO[C@H]([C@@H]([C@H]([C@H](C(=O)N[C@H]2c3ccccc3C[C@H]2O)OCc4ccccc4)O)O)C(=O)N[C@H]5c6ccccc6C[C@H]5O

> <OPENEYE_INCHI>
InChI=1S/C38H40N2O8/c41-29-19-25-15-7-9-17-27(25)31(29)39-37(45)35(47-21-23-11-3-1-4-12-23)33(43)34(44)36(48-22-24-13-5-2-6-14-24)38(46)40-32-28-18-10-8-16-26(28)20-30(32)42/h1-18,29-36,41-44H,19-22H2,(H,39,45)(H,40,46)/t29-,30-,31+,32+,33-,34-,35-,36-/m1/s1

> <OPENEYE_INCHIKEY>
UOHMQWQGAJAUGT-JQFCFGFHSA-N

> <FORMULA>
C38H40N2O8

$$$$
