9H3
  -OEChem-11082419093D

 47 51  0     0  0  0  0  0  0999 V2000
    2.4400    0.1220    0.1260 C   0  0  0  0  0  0  0  0  0  0  0  0
    3.6840   -0.5290   -0.4250 C   0  0  0  0  0  0  0  0  0  0  0  0
    3.9000   -1.4870   -1.3890 C   0  0  0  0  0  0  0  0  0  0  0  0
    5.1890   -1.8930   -1.6830 C   0  0  0  0  0  0  0  0  0  0  0  0
    6.2560   -1.3310   -1.0060 C   0  0  0  0  0  0  0  0  0  0  0  0
    6.0420   -0.3700   -0.0410 C   0  0  0  0  0  0  0  0  0  0  0  0
   -5.7650   -0.0050   -0.7110 C   0  0  0  0  0  0  0  0  0  0  0  0
   -4.2980    0.1280   -0.4060 C   0  0  0  0  0  0  0  0  0  0  0  0
   -3.5770    1.1590   -1.0460 C   0  0  0  0  0  0  0  0  0  0  0  0
   -1.6600    0.4540    0.0960 C   0  0  0  0  0  0  0  0  0  0  0  0
    0.3210   -0.2190    1.4000 C   0  0  0  0  0  0  0  0  0  0  0  0
    1.5360   -0.9190    0.7800 C   0  0  0  0  0  0  0  0  0  0  0  0
    4.7470    0.0440    0.2620 C   0  0  0  0  0  0  0  0  0  0  0  0
    2.9690    1.0860    1.1630 C   0  0  0  0  0  0  0  0  0  0  0  0
    1.6950    0.8750   -0.9700 C   0  0  0  0  0  0  0  0  0  0  0  0
    0.4810    1.5880   -0.3630 C   0  0  0  0  0  0  0  0  0  0  0  0
   -3.6430   -0.6940    0.4530 C   0  0  0  0  0  0  0  0  0  0  0  0
   -4.3250   -1.8330    1.1660 C   0  0  0  0  0  0  0  0  0  0  0  0
   -5.8410   -1.6500    1.1460 C   0  0  0  0  0  0  0  0  0  0  0  0
   -6.2770   -1.3850   -0.3000 C   0  0  0  0  0  0  0  0  0  0  0  0
   -2.2630    1.3030   -0.7800 N   0  0  0  0  0  0  0  0  0  0  0  0
   -0.3260    0.6030    0.3690 N   0  0  0  0  0  0  0  0  0  0  0  0
   -2.3380   -0.5070    0.6830 N   0  0  0  0  0  0  0  0  0  0  0  0
   -4.1350    1.9090   -1.8290 O   0  0  0  0  0  0  0  0  0  0  0  0
    4.3030    0.9590    1.1580 O   0  0  0  0  0  0  0  0  0  0  0  0
    2.3170    1.8260    1.8610 O   0  0  0  0  0  0  0  0  0  0  0  0
    3.0630   -1.9230   -1.9150 H   0  0  0  0  0  0  0  0  0  0  0  0
    5.3620   -2.6450   -2.4380 H   0  0  0  0  0  0  0  0  0  0  0  0
    7.2640   -1.6480   -1.2340 H   0  0  0  0  0  0  0  0  0  0  0  0
    6.8810    0.0630    0.4830 H   0  0  0  0  0  0  0  0  0  0  0  0
   -6.3170    0.7600   -0.1640 H   0  0  0  0  0  0  0  0  0  0  0  0
   -5.9240    0.1330   -1.7800 H   0  0  0  0  0  0  0  0  0  0  0  0
   -0.3820   -0.9660    1.7680 H   0  0  0  0  0  0  0  0  0  0  0  0
    1.2000   -1.6320    0.0270 H   0  0  0  0  0  0  0  0  0  0  0  0
    2.3600    1.6110   -1.4220 H   0  0  0  0  0  0  0  0  0  0  0  0
    1.3600    0.1710   -1.7320 H   0  0  0  0  0  0  0  0  0  0  0  0
    0.8190    2.3660    0.3220 H   0  0  0  0  0  0  0  0  0  0  0  0
   -0.1150    2.0350   -1.1580 H   0  0  0  0  0  0  0  0  0  0  0  0
   -4.0690   -2.7700    0.6710 H   0  0  0  0  0  0  0  0  0  0  0  0
   -3.9810   -1.8680    2.2000 H   0  0  0  0  0  0  0  0  0  0  0  0
   -6.3250   -2.5540    1.5150 H   0  0  0  0  0  0  0  0  0  0  0  0
   -6.1160   -0.8030    1.7740 H   0  0  0  0  0  0  0  0  0  0  0  0
   -7.3640   -1.4080   -0.3660 H   0  0  0  0  0  0  0  0  0  0  0  0
   -5.8520   -2.1440   -0.9570 H   0  0  0  0  0  0  0  0  0  0  0  0
   -1.7520    2.0060   -1.2110 H   0  0  0  0  0  0  0  0  0  0  0  0
    0.6460    0.4140    2.2250 H   0  0  0  0  0  0  0  0  0  0  0  0
    2.0900   -1.4440    1.5580 H   0  0  0  0  0  0  0  0  0  0  0  0
  7 20  1  0  0  0  0
 19 20  1  0  0  0  0
  7  8  1  0  0  0  0
 18 19  1  0  0  0  0
  9 24  2  0  0  0  0
  8  9  1  0  0  0  0
  8 17  2  0  0  0  0
  9 21  1  0  0  0  0
 17 18  1  0  0  0  0
 17 23  1  0  0  0  0
 10 21  1  0  0  0  0
 10 23  2  0  0  0  0
 10 22  1  0  0  0  0
 16 22  1  0  0  0  0
 11 22  1  0  0  0  0
 15 16  1  0  0  0  0
 11 12  1  0  0  0  0
  1 15  1  0  0  0  0
  1 12  1  0  0  0  0
 14 26  2  0  0  0  0
  1 14  1  0  0  0  0
  1  2  1  0  0  0  0
 14 25  1  0  0  0  0
  2  3  1  0  0  0  0
  2 13  2  0  0  0  0
 13 25  1  0  0  0  0
  3  4  2  0  0  0  0
  6 13  1  0  0  0  0
  4  5  1  0  0  0  0
  5  6  2  0  0  0  0
  3 27  1  0  0  0  0
  4 28  1  0  0  0  0
  5 29  1  0  0  0  0
  6 30  1  0  0  0  0
  7 31  1  0  0  0  0
  7 32  1  0  0  0  0
 11 33  1  0  0  0  0
 12 34  1  0  0  0  0
 15 35  1  0  0  0  0
 15 36  1  0  0  0  0
 16 37  1  0  0  0  0
 16 38  1  0  0  0  0
 18 39  1  0  0  0  0
 18 40  1  0  0  0  0
 19 41  1  0  0  0  0
 19 42  1  0  0  0  0
 20 43  1  0  0  0  0
 20 44  1  0  0  0  0
 21 45  1  0  0  0  0
 11 46  1  0  0  0  0
 12 47  1  0  0  0  0
M  END
> <OPENEYE_ISO_SMILES>
c1ccc2c(c1)C3(CCN(CC3)c4[nH]c(=O)c5c(n4)CCCC5)C(=O)O2

> <OPENEYE_INCHI>
InChI=1S/C20H21N3O3/c24-17-13-5-1-3-7-15(13)21-19(22-17)23-11-9-20(10-12-23)14-6-2-4-8-16(14)26-18(20)25/h2,4,6,8H,1,3,5,7,9-12H2,(H,21,22,24)

> <OPENEYE_INCHIKEY>
XGTNOTWEBRRAKO-UHFFFAOYSA-N

> <FORMULA>
C20H21N3O3

$$$$
