IZA
  -OEChem-11082419103D

 39 42  0     0  0  0  0  0  0999 V2000
   -3.7680    1.5190   -0.0010 O   0  0  0  0  0  0  0  0  0  0  0  0
   -2.6300    1.9560    0.0000 C   0  0  0  0  0  0  0  0  0  0  0  0
   -2.4150    3.2860    0.0000 N   0  0  0  0  0  0  0  0  0  0  0  0
   -1.1520    3.8020    0.0000 C   0  0  0  0  0  0  0  0  0  0  0  0
   -0.0660    3.0080    0.0000 C   0  0  0  0  0  0  0  0  0  0  0  0
   -0.2250    1.5970    0.0000 C   0  0  0  0  0  0  0  0  0  0  0  0
    0.8980    0.7440    0.0000 C   0  0  0  0  0  0  0  0  0  0  0  0
   -1.5280    1.0680   -0.0010 C   0  0  0  0  0  0  0  0  0  0  0  0
   -1.7240   -0.3820    0.0000 C   0  0  0  0  0  0  0  0  0  0  0  0
   -3.0060   -0.9410    0.0000 C   0  0  0  0  0  0  0  0  0  0  0  0
   -3.1510   -2.3100    0.0010 C   0  0  0  0  0  0  0  0  0  0  0  0
   -4.3890   -2.8520    0.0010 F   0  0  0  0  0  0  0  0  0  0  0  0
   -2.0340   -3.1410    0.0010 C   0  0  0  0  0  0  0  0  0  0  0  0
   -0.7740   -2.6170    0.0000 C   0  0  0  0  0  0  0  0  0  0  0  0
   -0.5950   -1.2310    0.0000 C   0  0  0  0  0  0  0  0  0  0  0  0
    0.7470   -0.6400    0.0000 C   0  0  0  0  0  0  0  0  0  0  0  0
    1.9830   -1.1750   -0.0040 N   0  0  0  0  0  0  0  0  0  0  0  0
    2.8730   -0.2230    0.0010 C   0  0  0  0  0  0  0  0  0  0  0  0
    2.2580    0.9790    0.0000 N   0  0  0  0  0  0  0  0  0  0  0  0
    4.3660   -0.4320    0.0000 C   0  0  0  0  0  0  0  0  0  0  0  0
    4.9230   -0.1320    1.3940 C   0  0  0  0  0  0  0  0  0  0  0  0
    5.0120    0.5070   -1.0200 C   0  0  0  0  0  0  0  0  0  0  0  0
    4.6780   -1.8830   -0.3720 C   0  0  0  0  0  0  0  0  0  0  0  0
   -3.1740    3.8890    0.0000 H   0  0  0  0  0  0  0  0  0  0  0  0
   -1.0210    4.8740    0.0000 H   0  0  0  0  0  0  0  0  0  0  0  0
    0.9230    3.4420    0.0010 H   0  0  0  0  0  0  0  0  0  0  0  0
   -3.8770   -0.3020    0.0010 H   0  0  0  0  0  0  0  0  0  0  0  0
   -2.1660   -4.2130    0.0020 H   0  0  0  0  0  0  0  0  0  0  0  0
    0.0840   -3.2730    0.0010 H   0  0  0  0  0  0  0  0  0  0  0  0
    2.6910    1.8470    0.0000 H   0  0  0  0  0  0  0  0  0  0  0  0
    4.7010    0.9020    1.6590 H   0  0  0  0  0  0  0  0  0  0  0  0
    4.4630   -0.8010    2.1210 H   0  0  0  0  0  0  0  0  0  0  0  0
    6.0020   -0.2830    1.3930 H   0  0  0  0  0  0  0  0  0  0  0  0
    6.0910    0.3560   -1.0200 H   0  0  0  0  0  0  0  0  0  0  0  0
    4.6150    0.2940   -2.0130 H   0  0  0  0  0  0  0  0  0  0  0  0
    4.7900    1.5410   -0.7550 H   0  0  0  0  0  0  0  0  0  0  0  0
    4.2170   -2.5510    0.3550 H   0  0  0  0  0  0  0  0  0  0  0  0
    4.2810   -2.0960   -1.3650 H   0  0  0  0  0  0  0  0  0  0  0  0
    5.7570   -2.0340   -0.3730 H   0  0  0  0  0  0  0  0  0  0  0  0
  1  2  2  0  0  0  0
  2  3  1  0  0  0  0
  2  8  1  0  0  0  0
  3  4  1  0  0  0  0
  3 24  1  0  0  0  0
  4  5  2  0  0  0  0
  4 25  1  0  0  0  0
  5  6  1  0  0  0  0
  5 26  1  0  0  0  0
  6  7  2  0  0  0  0
  6  8  1  0  0  0  0
  7 16  1  0  0  0  0
  7 19  1  0  0  0  0
  8  9  2  0  0  0  0
  9 10  1  0  0  0  0
  9 15  1  0  0  0  0
 10 11  2  0  0  0  0
 10 27  1  0  0  0  0
 11 12  1  0  0  0  0
 11 13  1  0  0  0  0
 13 14  2  0  0  0  0
 13 28  1  0  0  0  0
 14 15  1  0  0  0  0
 14 29  1  0  0  0  0
 15 16  2  0  0  0  0
 16 17  1  0  0  0  0
 17 18  2  0  0  0  0
 18 19  1  0  0  0  0
 18 20  1  0  0  0  0
 19 30  1  0  0  0  0
 20 21  1  0  0  0  0
 20 22  1  0  0  0  0
 20 23  1  0  0  0  0
 21 31  1  0  0  0  0
 21 32  1  0  0  0  0
 21 33  1  0  0  0  0
 22 34  1  0  0  0  0
 22 35  1  0  0  0  0
 22 36  1  0  0  0  0
 23 37  1  0  0  0  0
 23 38  1  0  0  0  0
 23 39  1  0  0  0  0
M  END
> <OPENEYE_ISO_SMILES>
CC(C)(C)c1[nH]c2c3cc[nH]c(=O)c3c4cc(ccc4c2n1)F

> <OPENEYE_INCHI>
InChI=1S/C18H16FN3O/c1-18(2,3)17-21-14-10-5-4-9(19)8-12(10)13-11(15(14)22-17)6-7-20-16(13)23/h4-8H,1-3H3,(H,20,23)(H,21,22)

> <OPENEYE_INCHIKEY>
VNDWQCSOSCCWIP-UHFFFAOYSA-N

> <FORMULA>
C18H16FN3O

$$$$
