PRC
  -OEChem-11082419103D

 47 50  0     0  0  0  0  0  0999 V2000
   -0.1880   -0.4240   -7.5570 C   0  0  0  0  0  0  0  0  0  0  0  0
   -1.4920   -0.7380   -7.8960 C   0  0  0  0  0  0  0  0  0  0  0  0
   -2.4530   -0.7170   -6.9930 N   0  0  0  0  0  0  0  0  0  0  0  0
   -2.2180   -0.4050   -5.7340 C   0  0  0  0  0  0  0  0  0  0  0  0
   -0.9320   -0.0710   -5.3150 C   0  0  0  0  0  0  0  0  0  0  0  0
    0.1070   -0.0830   -6.2490 C   0  0  0  0  0  0  0  0  0  0  0  0
   -0.6700    0.2860   -3.8990 C   0  0  0  0  0  0  0  0  0  0  0  0
    0.4340   -0.1350   -3.2890 N   0  0  0  0  0  0  0  0  0  0  0  0
    0.6670    0.1770   -2.0250 C   0  0  0  0  0  0  0  0  0  0  0  0
   -0.1750    0.9230   -1.3250 N   0  0  0  0  0  0  0  0  0  0  0  0
   -1.2910    1.3810   -1.8690 C   0  0  0  0  0  0  0  0  0  0  0  0
   -1.5780    1.0740   -3.1870 C   0  0  0  0  0  0  0  0  0  0  0  0
    1.8240   -0.2820   -1.4180 N   0  0  0  0  0  0  0  0  0  0  0  0
    2.0290   -0.0690   -0.0510 C   0  0  0  0  0  0  0  0  0  0  0  0
    0.9480   -0.0500    0.8180 C   0  0  0  0  0  0  0  0  0  0  0  0
    1.1550    0.1600    2.1730 C   0  0  0  0  0  0  0  0  0  0  0  0
    2.4450    0.3460    2.6560 C   0  0  0  0  0  0  0  0  0  0  0  0
    3.5190    0.3210    1.7890 C   0  0  0  0  0  0  0  0  0  0  0  0
    3.3160    0.1110    0.4380 C   0  0  0  0  0  0  0  0  0  0  0  0
    4.4920    0.0850   -0.5030 C   0  0  0  0  0  0  0  0  0  0  0  0
    0.0680    0.1850    3.0520 N   0  0  0  0  0  0  0  0  0  0  0  0
    0.1860   -0.3440    4.2860 C   0  0  0  0  0  0  0  0  0  0  0  0
   -0.9300   -0.2320    5.2480 C   0  0  0  0  0  0  0  0  0  0  0  0
   -0.8200   -0.7780    6.5330 C   0  0  0  0  0  0  0  0  0  0  0  0
   -1.8940   -0.6460    7.3950 C   0  0  0  0  0  0  0  0  0  0  0  0
   -3.0310    0.0140    6.9650 C   0  0  0  0  0  0  0  0  0  0  0  0
   -3.1060    0.5190    5.7480 N   0  0  0  0  0  0  0  0  0  0  0  0
   -2.1090    0.4240    4.8930 C   0  0  0  0  0  0  0  0  0  0  0  0
    1.2100   -0.9130    4.6070 O   0  0  0  0  0  0  0  0  0  0  0  0
    0.5890   -0.4440   -8.3050 H   0  0  0  0  0  0  0  0  0  0  0  0
   -1.7260   -1.0040   -8.9160 H   0  0  0  0  0  0  0  0  0  0  0  0
   -3.0310   -0.3990   -5.0240 H   0  0  0  0  0  0  0  0  0  0  0  0
    1.1170    0.1660   -5.9560 H   0  0  0  0  0  0  0  0  0  0  0  0
   -1.9710    1.9880   -1.2900 H   0  0  0  0  0  0  0  0  0  0  0  0
   -2.4820    1.4350   -3.6550 H   0  0  0  0  0  0  0  0  0  0  0  0
    2.4930   -0.7510   -1.9410 H   0  0  0  0  0  0  0  0  0  0  0  0
   -0.0530   -0.1960    0.4400 H   0  0  0  0  0  0  0  0  0  0  0  0
    2.6070    0.5100    3.7110 H   0  0  0  0  0  0  0  0  0  0  0  0
    4.5210    0.4650    2.1670 H   0  0  0  0  0  0  0  0  0  0  0  0
    4.8680   -0.9340   -0.5870 H   0  0  0  0  0  0  0  0  0  0  0  0
    4.1780    0.4380   -1.4860 H   0  0  0  0  0  0  0  0  0  0  0  0
    5.2800    0.7320   -0.1190 H   0  0  0  0  0  0  0  0  0  0  0  0
   -0.7710    0.5840    2.7740 H   0  0  0  0  0  0  0  0  0  0  0  0
    0.0790   -1.2890    6.8420 H   0  0  0  0  0  0  0  0  0  0  0  0
   -1.8450   -1.0550    8.3940 H   0  0  0  0  0  0  0  0  0  0  0  0
   -3.8700    0.1190    7.6360 H   0  0  0  0  0  0  0  0  0  0  0  0
   -2.2090    0.8500    3.9060 H   0  0  0  0  0  0  0  0  0  0  0  0
  1  2  2  0  0  0  0
  1  6  1  0  0  0  0
  1 30  1  0  0  0  0
  2  3  1  0  0  0  0
  2 31  1  0  0  0  0
  3  4  2  0  0  0  0
  4  5  1  0  0  0  0
  4 32  1  0  0  0  0
  5  6  2  0  0  0  0
  5  7  1  0  0  0  0
  6 33  1  0  0  0  0
  7  8  2  0  0  0  0
  7 12  1  0  0  0  0
  8  9  1  0  0  0  0
  9 10  2  0  0  0  0
  9 13  1  0  0  0  0
 10 11  1  0  0  0  0
 11 12  2  0  0  0  0
 11 34  1  0  0  0  0
 12 35  1  0  0  0  0
 13 14  1  0  0  0  0
 13 36  1  0  0  0  0
 14 15  2  0  0  0  0
 14 19  1  0  0  0  0
 15 16  1  0  0  0  0
 15 37  1  0  0  0  0
 16 17  2  0  0  0  0
 16 21  1  0  0  0  0
 17 18  1  0  0  0  0
 17 38  1  0  0  0  0
 18 19  2  0  0  0  0
 18 39  1  0  0  0  0
 19 20  1  0  0  0  0
 20 40  1  0  0  0  0
 20 41  1  0  0  0  0
 20 42  1  0  0  0  0
 21 22  1  0  0  0  0
 21 43  1  0  0  0  0
 22 23  1  0  0  0  0
 22 29  2  0  0  0  0
 23 24  2  0  0  0  0
 23 28  1  0  0  0  0
 24 25  1  0  0  0  0
 24 44  1  0  0  0  0
 25 26  2  0  0  0  0
 25 45  1  0  0  0  0
 26 27  1  0  0  0  0
 26 46  1  0  0  0  0
 27 28  2  0  0  0  0
 28 47  1  0  0  0  0
M  END
> <OPENEYE_ISO_SMILES>
Cc1ccc(cc1Nc2nccc(n2)c3cccnc3)NC(=O)c4cccnc4

> <OPENEYE_INCHI>
InChI=1S/C22H18N6O/c1-15-6-7-18(26-21(29)17-5-3-10-24-14-17)12-20(15)28-22-25-11-8-19(27-22)16-4-2-9-23-13-16/h2-14H,1H3,(H,26,29)(H,25,27,28)

> <OPENEYE_INCHIKEY>
YWQVBESSYLICRX-UHFFFAOYSA-N

> <FORMULA>
C22H18N6O

$$$$
