DAN
  -OEChem-11082419093D

 37 37  0     1  0  0  0  0  0999 V2000
   -3.3710   -0.1450    1.0660 C   0  0  0  0  0  0  0  0  0  0  0  0
   -2.1570   -0.0010    0.2440 C   0  0  0  0  0  0  0  0  0  0  0  0
   -2.3210    0.4570   -0.9810 C   0  0  0  0  0  0  0  0  0  0  0  0
   -1.1630    0.6710   -1.9230 C   0  0  1  0  0  0  0  0  0  0  0  0
    0.0750   -0.0040   -1.3170 C   0  0  2  0  0  0  0  0  0  0  0  0
    0.0890    0.3190    0.1820 C   0  0  2  0  0  0  0  0  0  0  0  0
    1.4110   -0.1470    0.7960 C   0  0  1  0  0  0  0  0  0  0  0  0
    1.4190    0.1730    2.2920 C   0  0  1  0  0  0  0  0  0  0  0  0
    2.7400   -0.2920    2.9060 C   0  0  0  0  0  0  0  0  0  0  0  0
    1.7950   -0.0910   -3.0410 C   0  0  0  0  0  0  0  0  0  0  0  0
    3.0430    0.4460   -3.6930 C   0  0  0  0  0  0  0  0  0  0  0  0
    1.2880    0.5180   -1.9510 N   0  0  0  0  0  0  0  0  0  0  0  0
   -4.4550    0.1540    0.6070 O   0  0  0  0  0  0  0  0  0  0  0  0
   -3.2790   -0.6090    2.3290 O   0  0  0  0  0  0  0  0  0  0  0  0
   -1.4590    0.0870   -3.1930 O   0  0  0  0  0  0  0  0  0  0  0  0
   -0.9920   -0.3510    0.8170 O   0  0  0  0  0  0  0  0  0  0  0  0
    1.5500   -1.5570    0.6110 O   0  0  0  0  0  0  0  0  0  0  0  0
    1.2790    1.5840    2.4770 O   0  0  0  0  0  0  0  0  0  0  0  0
    2.7480    0.0070    4.3030 O   0  0  0  0  0  0  0  0  0  0  0  0
    1.2480   -1.0730   -3.4970 O   0  0  0  0  0  0  0  0  0  0  0  0
   -3.3190    0.6890   -1.3220 H   0  0  0  0  0  0  0  0  0  0  0  0
   -0.9780    1.7380   -2.0420 H   0  0  0  0  0  0  0  0  0  0  0  0
    0.0170   -1.0830   -1.4630 H   0  0  0  0  0  0  0  0  0  0  0  0
   -0.0160    1.3940    0.3210 H   0  0  0  0  0  0  0  0  0  0  0  0
    2.2390    0.3660    0.3090 H   0  0  0  0  0  0  0  0  0  0  0  0
    0.5900   -0.3400    2.7790 H   0  0  0  0  0  0  0  0  0  0  0  0
    2.8470   -1.3680    2.7650 H   0  0  0  0  0  0  0  0  0  0  0  0
    3.5690    0.2210    2.4200 H   0  0  0  0  0  0  0  0  0  0  0  0
    3.2990   -0.1720   -4.5530 H   0  0  0  0  0  0  0  0  0  0  0  0
    2.8680    1.4700   -4.0220 H   0  0  0  0  0  0  0  0  0  0  0  0
    3.8630    0.4290   -2.9760 H   0  0  0  0  0  0  0  0  0  0  0  0
    1.7260    1.3030   -1.5870 H   0  0  0  0  0  0  0  0  0  0  0  0
   -4.0760   -0.7030    2.8680 H   0  0  0  0  0  0  0  0  0  0  0  0
   -2.2410    0.5420   -3.5340 H   0  0  0  0  0  0  0  0  0  0  0  0
    0.7990   -1.9730    1.0560 H   0  0  0  0  0  0  0  0  0  0  0  0
    2.0310    2.0000    2.0320 H   0  0  0  0  0  0  0  0  0  0  0  0
    3.5960   -0.3010    4.6510 H   0  0  0  0  0  0  0  0  0  0  0  0
  1  2  1  0  0  0  0
  1 13  2  0  0  0  0
  1 14  1  0  0  0  0
  2  3  2  0  0  0  0
  2 16  1  0  0  0  0
  3  4  1  0  0  0  0
  3 21  1  0  0  0  0
  4  5  1  0  0  0  0
  4 15  1  0  0  0  0
  4 22  1  0  0  0  0
  5  6  1  0  0  0  0
  5 12  1  0  0  0  0
  5 23  1  0  0  0  0
  6  7  1  0  0  0  0
  6 16  1  0  0  0  0
  6 24  1  0  0  0  0
  7  8  1  0  0  0  0
  7 17  1  0  0  0  0
  7 25  1  0  0  0  0
  8  9  1  0  0  0  0
  8 18  1  0  0  0  0
  8 26  1  0  0  0  0
  9 19  1  0  0  0  0
  9 27  1  0  0  0  0
  9 28  1  0  0  0  0
 10 11  1  0  0  0  0
 10 12  1  0  0  0  0
 10 20  2  0  0  0  0
 11 29  1  0  0  0  0
 11 30  1  0  0  0  0
 11 31  1  0  0  0  0
 12 32  1  0  0  0  0
 14 33  1  0  0  0  0
 15 34  1  0  0  0  0
 17 35  1  0  0  0  0
 18 36  1  0  0  0  0
 19 37  1  0  0  0  0
M  END
> <OPENEYE_ISO_SMILES>
CC(=O)N[C@@H]1[C@H](C=C(O[C@H]1[C@@H]([C@@H](CO)O)O)C(=O)O)O

> <OPENEYE_INCHI>
InChI=1S/C11H17NO8/c1-4(14)12-8-5(15)2-7(11(18)19)20-10(8)9(17)6(16)3-13/h2,5-6,8-10,13,15-17H,3H2,1H3,(H,12,14)(H,18,19)/t5-,6+,8+,9+,10+/m0/s1

> <OPENEYE_INCHIKEY>
JINJZWSZQKHCIP-UFGQHTETSA-N

> <FORMULA>
C11H17NO8

$$$$
