PDS
  -OEChem-11082419103D

 61 65  0     0  0  0  0  0  0999 V2000
   -0.6360    1.6400    0.5220 O   0  0  0  0  0  0  0  0  0  0  0  0
    0.4190    1.3690    1.0700 C   0  0  0  0  0  0  0  0  0  0  0  0
    1.6840    1.6420    0.6410 N   0  0  0  0  0  0  0  0  0  0  0  0
    2.6220    1.1720    1.5110 C   0  0  0  0  0  0  0  0  0  0  0  0
    3.8360    1.2600    1.4270 O   0  0  0  0  0  0  0  0  0  0  0  0
    0.5620    0.6470    2.3600 C   0  0  0  0  0  0  0  0  0  0  0  0
    1.8770    0.5250    2.6210 C   0  0  0  0  0  0  0  0  0  0  0  0
    2.5310   -0.0760    3.7410 C   0  0  0  0  0  0  0  0  0  0  0  0
    2.9110    0.5510    4.9600 C   0  0  0  0  0  0  0  0  0  0  0  0
    2.7970    1.8610    5.4670 C   0  0  0  0  0  0  0  0  0  0  0  0
    3.2930    2.1440    6.7450 C   0  0  0  0  0  0  0  0  0  0  0  0
    3.8930    1.1490    7.5140 C   0  0  0  0  0  0  0  0  0  0  0  0
    4.0170   -0.1580    7.0320 C   0  0  0  0  0  0  0  0  0  0  0  0
    3.5170   -0.4260    5.7530 C   0  0  0  0  0  0  0  0  0  0  0  0
    3.5000   -1.5990    5.0330 N   0  0  0  0  0  0  0  0  0  0  0  0
    2.9070   -1.3980    3.8150 C   0  0  0  0  0  0  0  0  0  0  0  0
    2.7670   -2.5090    2.8530 C   0  0  0  0  0  0  0  0  0  0  0  0
   -0.5620    0.1790    3.1110 C   0  0  0  0  0  0  0  0  0  0  0  0
   -1.2210   -1.0790    2.9950 C   0  0  0  0  0  0  0  0  0  0  0  0
   -1.0290   -2.2140    2.1810 C   0  0  0  0  0  0  0  0  0  0  0  0
   -1.8830   -3.3130    2.3300 C   0  0  0  0  0  0  0  0  0  0  0  0
   -2.2610   -1.0890    3.9270 C   0  0  0  0  0  0  0  0  0  0  0  0
   -3.1220   -2.1810    4.0870 C   0  0  0  0  0  0  0  0  0  0  0  0
   -2.9120   -3.2940    3.2690 C   0  0  0  0  0  0  0  0  0  0  0  0
   -2.2280    0.1210    4.5820 N   0  0  0  0  0  0  0  0  0  0  0  0
   -1.2070    0.8940    4.0970 C   0  0  0  0  0  0  0  0  0  0  0  0
   -0.9430    2.2520    4.6240 C   0  0  0  0  0  0  0  0  0  0  0  0
   -3.1440    0.5180    5.6320 C   0  0  0  0  0  0  0  0  0  0  0  0
   -4.3820    1.2240    5.0770 C   0  0  0  0  0  0  0  0  0  0  0  0
   -5.3480    1.6540    6.1750 C   0  0  0  0  0  0  0  0  0  0  0  0
   -6.4990    2.3390    5.6540 N   0  0  0  0  0  0  0  0  0  0  0  0
   -7.3810    2.8070    6.7350 C   0  0  0  0  0  0  0  0  0  0  0  0
   -7.2640    1.4810    4.7350 C   0  0  0  0  0  0  0  0  0  0  0  0
    1.9000    2.1330   -0.2200 H   0  0  0  0  0  0  0  0  0  0  0  0
    2.3320    2.6490    4.8810 H   0  0  0  0  0  0  0  0  0  0  0  0
    3.2080    3.1520    7.1410 H   0  0  0  0  0  0  0  0  0  0  0  0
    4.2710    1.3910    8.5040 H   0  0  0  0  0  0  0  0  0  0  0  0
    4.4850   -0.9320    7.6310 H   0  0  0  0  0  0  0  0  0  0  0  0
    3.8750   -2.4800    5.3590 H   0  0  0  0  0  0  0  0  0  0  0  0
    1.7310   -2.8840    2.8280 H   0  0  0  0  0  0  0  0  0  0  0  0
    3.0390   -2.2040    1.8280 H   0  0  0  0  0  0  0  0  0  0  0  0
    3.4250   -3.3580    3.1040 H   0  0  0  0  0  0  0  0  0  0  0  0
   -0.2320   -2.2450    1.4440 H   0  0  0  0  0  0  0  0  0  0  0  0
   -1.7400   -4.1900    1.7040 H   0  0  0  0  0  0  0  0  0  0  0  0
   -3.9240   -2.1720    4.8160 H   0  0  0  0  0  0  0  0  0  0  0  0
   -3.5640   -4.1590    3.3680 H   0  0  0  0  0  0  0  0  0  0  0  0
    0.0030    2.2770    5.1870 H   0  0  0  0  0  0  0  0  0  0  0  0
   -0.8760    2.9980    3.8160 H   0  0  0  0  0  0  0  0  0  0  0  0
   -1.7470    2.5940    5.2950 H   0  0  0  0  0  0  0  0  0  0  0  0
   -3.4150   -0.3850    6.1910 H   0  0  0  0  0  0  0  0  0  0  0  0
   -2.5960    1.1720    6.3210 H   0  0  0  0  0  0  0  0  0  0  0  0
   -4.8970    0.5660    4.3650 H   0  0  0  0  0  0  0  0  0  0  0  0
   -4.0720    2.1140    4.5150 H   0  0  0  0  0  0  0  0  0  0  0  0
   -5.7020    0.7940    6.7520 H   0  0  0  0  0  0  0  0  0  0  0  0
   -4.8500    2.3440    6.8630 H   0  0  0  0  0  0  0  0  0  0  0  0
   -7.0720    2.3680    7.6870 H   0  0  0  0  0  0  0  0  0  0  0  0
   -8.4150    2.5160    6.5320 H   0  0  0  0  0  0  0  0  0  0  0  0
   -7.3330    3.8960    6.8170 H   0  0  0  0  0  0  0  0  0  0  0  0
   -7.1550    1.8390    3.7080 H   0  0  0  0  0  0  0  0  0  0  0  0
   -8.3240    1.4930    5.0010 H   0  0  0  0  0  0  0  0  0  0  0  0
   -6.9010    0.4510    4.7890 H   0  0  0  0  0  0  0  0  0  0  0  0
  1  2  2  0  0  0  0
  2  6  1  0  0  0  0
  2  3  1  0  0  0  0
  3  4  1  0  0  0  0
  3 34  1  0  0  0  0
  4  7  1  0  0  0  0
  4  5  2  0  0  0  0
  6 18  1  0  0  0  0
  6  7  2  0  0  0  0
  7  8  1  0  0  0  0
  8  9  1  0  0  0  0
  8 16  2  0  0  0  0
  9 10  2  0  0  0  0
  9 14  1  0  0  0  0
 10 11  1  0  0  0  0
 10 35  1  0  0  0  0
 11 12  2  0  0  0  0
 11 36  1  0  0  0  0
 12 13  1  0  0  0  0
 12 37  1  0  0  0  0
 13 14  2  0  0  0  0
 13 38  1  0  0  0  0
 14 15  1  0  0  0  0
 15 16  1  0  0  0  0
 15 39  1  0  0  0  0
 16 17  1  0  0  0  0
 17 40  1  0  0  0  0
 17 41  1  0  0  0  0
 17 42  1  0  0  0  0
 18 19  1  0  0  0  0
 18 26  2  0  0  0  0
 19 22  2  0  0  0  0
 19 20  1  0  0  0  0
 20 21  2  0  0  0  0
 20 43  1  0  0  0  0
 21 24  1  0  0  0  0
 21 44  1  0  0  0  0
 22 23  1  0  0  0  0
 22 25  1  0  0  0  0
 23 24  2  0  0  0  0
 23 45  1  0  0  0  0
 24 46  1  0  0  0  0
 25 28  1  0  0  0  0
 25 26  1  0  0  0  0
 26 27  1  0  0  0  0
 27 47  1  0  0  0  0
 27 48  1  0  0  0  0
 27 49  1  0  0  0  0
 28 29  1  0  0  0  0
 28 50  1  0  0  0  0
 28 51  1  0  0  0  0
 29 30  1  0  0  0  0
 29 52  1  0  0  0  0
 29 53  1  0  0  0  0
 30 31  1  0  0  0  0
 30 54  1  0  0  0  0
 30 55  1  0  0  0  0
 31 33  1  0  0  0  0
 31 32  1  0  0  0  0
 32 56  1  0  0  0  0
 32 57  1  0  0  0  0
 32 58  1  0  0  0  0
 33 59  1  0  0  0  0
 33 60  1  0  0  0  0
 33 61  1  0  0  0  0
M  END
> <OPENEYE_ISO_SMILES>
Cc1c(c2ccccc2[nH]1)C3=C(C(=O)NC3=O)c4c(n(c5c4cccc5)CCCN(C)C)C

> <OPENEYE_INCHI>
InChI=1S/C27H28N4O2/c1-16-22(18-10-5-7-12-20(18)28-16)24-25(27(33)29-26(24)32)23-17(2)31(15-9-14-30(3)4)21-13-8-6-11-19(21)23/h5-8,10-13,28H,9,14-15H2,1-4H3,(H,29,32,33)

> <OPENEYE_INCHIKEY>
OHIVGFJSFMOMNC-UHFFFAOYSA-N

> <FORMULA>
C27H28N4O2

$$$$
