ST4
  -OEChem-11082419103D

 31 31  0     0  0  0  0  0  0999 V2000
    1.1530   -0.0010   -3.2080 C   0  0  0  0  0  0  0  0  0  0  0  0
    0.2020    0.0840   -3.9600 O   0  0  0  0  0  0  0  0  0  0  0  0
    2.4060   -0.0110   -3.7050 O   0  0  0  0  0  0  0  0  0  0  0  0
    0.9360   -0.0940   -1.7530 C   0  0  0  0  0  0  0  0  0  0  0  0
   -0.3620   -0.0840   -1.2360 C   0  0  0  0  0  0  0  0  0  0  0  0
   -0.5600   -0.1760    0.1280 C   0  0  0  0  0  0  0  0  0  0  0  0
   -1.8580   -0.1660    0.6500 N   0  0  0  0  0  0  0  0  0  0  0  0
   -3.0080   -0.0570   -0.2500 C   0  0  0  0  0  0  0  0  0  0  0  0
   -4.1600   -0.7520    0.3390 N   0  0  0  0  0  0  0  0  0  0  0  0
   -3.3410    1.3590   -0.4500 N   0  0  0  0  0  0  0  0  0  0  0  0
    0.5370   -0.2690    0.9880 C   0  0  0  0  0  0  0  0  0  0  0  0
    0.3370   -0.3560    2.3670 N   0  0  0  0  0  0  0  0  0  0  0  0
    1.2610    0.1370    3.2140 C   0  0  0  0  0  0  0  0  0  0  0  0
    2.2130    0.7530    2.7820 O   0  0  0  0  0  0  0  0  0  0  0  0
    1.1130   -0.0750    4.6990 C   0  0  0  0  0  0  0  0  0  0  0  0
    1.8270   -0.2800    0.4720 C   0  0  0  0  0  0  0  0  0  0  0  0
    2.0300   -0.1930   -0.8870 C   0  0  0  0  0  0  0  0  0  0  0  0
    2.5480    0.0490   -4.6600 H   0  0  0  0  0  0  0  0  0  0  0  0
   -1.2080   -0.0070   -1.9020 H   0  0  0  0  0  0  0  0  0  0  0  0
   -1.9970   -0.2310    1.6070 H   0  0  0  0  0  0  0  0  0  0  0  0
   -2.7630   -0.5110   -1.2100 H   0  0  0  0  0  0  0  0  0  0  0  0
   -4.9240   -0.6510   -0.3110 H   0  0  0  0  0  0  0  0  0  0  0  0
   -3.9260   -1.7330    0.3620 H   0  0  0  0  0  0  0  0  0  0  0  0
   -3.5610    1.7370    0.4580 H   0  0  0  0  0  0  0  0  0  0  0  0
   -2.4950    1.8150   -0.7570 H   0  0  0  0  0  0  0  0  0  0  0  0
   -0.4660   -0.7720    2.7150 H   0  0  0  0  0  0  0  0  0  0  0  0
    1.9490    0.3910    5.2180 H   0  0  0  0  0  0  0  0  0  0  0  0
    0.1790    0.3710    5.0380 H   0  0  0  0  0  0  0  0  0  0  0  0
    1.1030   -1.1440    4.9130 H   0  0  0  0  0  0  0  0  0  0  0  0
    2.6730   -0.3560    1.1390 H   0  0  0  0  0  0  0  0  0  0  0  0
    3.0340   -0.2020   -1.2850 H   0  0  0  0  0  0  0  0  0  0  0  0
  1  2  2  0  0  0  0
  1  3  1  0  0  0  0
  1  4  1  0  0  0  0
  3 18  1  0  0  0  0
  4  5  2  0  0  0  0
  4 17  1  0  0  0  0
  5  6  1  0  0  0  0
  5 19  1  0  0  0  0
  6  7  1  0  0  0  0
  6 11  2  0  0  0  0
  7  8  1  0  0  0  0
  7 20  1  0  0  0  0
  8  9  1  0  0  0  0
  8 10  1  0  0  0  0
  8 21  1  0  0  0  0
  9 22  1  0  0  0  0
  9 23  1  0  0  0  0
 10 24  1  0  0  0  0
 10 25  1  0  0  0  0
 11 12  1  0  0  0  0
 11 16  1  0  0  0  0
 12 13  1  0  0  0  0
 12 26  1  0  0  0  0
 13 14  2  0  0  0  0
 13 15  1  0  0  0  0
 15 27  1  0  0  0  0
 15 28  1  0  0  0  0
 15 29  1  0  0  0  0
 16 17  2  0  0  0  0
 16 30  1  0  0  0  0
 17 31  1  0  0  0  0
M  END
> <OPENEYE_ISO_SMILES>
CC(=O)Nc1ccc(cc1NC(N)N)C(=O)O

> <OPENEYE_INCHI>
InChI=1S/C10H14N4O3/c1-5(15)13-7-3-2-6(9(16)17)4-8(7)14-10(11)12/h2-4,10,14H,11-12H2,1H3,(H,13,15)(H,16,17)

> <OPENEYE_INCHIKEY>
HIXHCUDMJUERSJ-UHFFFAOYSA-N

> <FORMULA>
C10H14N4O3

$$$$
