PJC
  -OEChem-11082419103D

 49 53  0     0  0  0  0  0  0999 V2000
    6.9060   -4.9890    8.4100 C   0  0  0  0  0  0  0  0  0  0  0  0
    7.8390   -4.3930    9.2970 C   0  0  0  0  0  0  0  0  0  0  0  0
    6.3930   -4.9250   11.1290 C   0  0  0  0  0  0  0  0  0  0  0  0
    5.7720   -5.6080    8.9690 C   0  0  0  0  0  0  0  0  0  0  0  0
    6.2410   -4.9710   12.4880 N   0  0  0  0  0  0  0  0  0  0  0  0
    7.1870   -4.2920   13.3850 C   0  0  0  0  0  0  0  0  0  0  0  0
    6.1520   -7.1230   13.5760 C   0  0  0  0  0  0  0  0  0  0  0  0
   10.3840   -3.9280    9.3560 C   0  0  0  0  0  0  0  0  0  0  0  0
    6.3820   -4.2730    6.1850 F   0  0  0  0  0  0  0  0  0  0  0  0
    7.0970   -5.1730    6.9060 C   0  0  0  0  0  0  0  0  0  0  0  0
    8.4040   -5.1100    6.5590 F   0  0  0  0  0  0  0  0  0  0  0  0
    6.7030   -6.4360    6.6030 F   0  0  0  0  0  0  0  0  0  0  0  0
    7.5200   -4.3750   10.6040 N   0  0  0  0  0  0  0  0  0  0  0  0
    5.5640   -5.6010   10.2960 N   0  0  0  0  0  0  0  0  0  0  0  0
    8.1780   -5.4090   13.8430 C   0  0  0  0  0  0  0  0  0  0  0  0
    7.4190   -6.6550   14.2810 C   0  0  0  0  0  0  0  0  0  0  0  0
    5.2930   -5.8960   13.1330 C   0  0  0  0  0  0  0  0  0  0  0  0
    7.8330   -7.2830   15.2290 O   0  0  0  0  0  0  0  0  0  0  0  0
    9.1260   -3.6660    8.9310 C   0  0  0  0  0  0  0  0  0  0  0  0
   11.2240   -2.8940    8.7150 C   0  0  0  0  0  0  0  0  0  0  0  0
   10.4940   -2.1540    7.8620 N   0  0  0  0  0  0  0  0  0  0  0  0
    9.2240   -2.5860    7.9510 C   0  0  0  0  0  0  0  0  0  0  0  0
    8.2700   -2.1470    7.3370 O   0  0  0  0  0  0  0  0  0  0  0  0
   12.4200   -2.7620    8.9020 O   0  0  0  0  0  0  0  0  0  0  0  0
   10.8720   -4.8370   10.4280 C   0  0  0  0  0  0  0  0  0  0  0  0
   11.9670   -4.6160   11.1910 C   0  0  0  0  0  0  0  0  0  0  0  0
   12.1360   -5.5780   12.0590 N   0  0  0  0  0  0  0  0  0  0  0  0
   11.2000   -6.5310   11.9160 C   0  0  0  0  0  0  0  0  0  0  0  0
   10.3360   -6.1800   10.8690 C   0  0  0  0  0  0  0  0  0  0  0  0
    9.2930   -7.0330   10.4880 C   0  0  0  0  0  0  0  0  0  0  0  0
    9.1190   -8.2100   11.2460 C   0  0  0  0  0  0  0  0  0  0  0  0
    9.9780   -8.5420   12.3290 C   0  0  0  0  0  0  0  0  0  0  0  0
   11.0580   -7.7080   12.6720 C   0  0  0  0  0  0  0  0  0  0  0  0
    5.0590   -6.0960    8.3210 H   0  0  0  0  0  0  0  0  0  0  0  0
    7.7180   -3.4840   12.8600 H   0  0  0  0  0  0  0  0  0  0  0  0
    6.6660   -3.8490   14.2470 H   0  0  0  0  0  0  0  0  0  0  0  0
    5.5640   -7.7460   14.2660 H   0  0  0  0  0  0  0  0  0  0  0  0
    6.4280   -7.7100   12.6880 H   0  0  0  0  0  0  0  0  0  0  0  0
    8.8400   -5.6680   13.0040 H   0  0  0  0  0  0  0  0  0  0  0  0
    8.7740   -5.0360   14.6890 H   0  0  0  0  0  0  0  0  0  0  0  0
    4.8100   -5.4210   14.0000 H   0  0  0  0  0  0  0  0  0  0  0  0
    4.5040   -6.2030   12.4300 H   0  0  0  0  0  0  0  0  0  0  0  0
   10.8320   -1.4200    7.2720 H   0  0  0  0  0  0  0  0  0  0  0  0
   12.6160   -3.7580   11.0950 H   0  0  0  0  0  0  0  0  0  0  0  0
    8.6510   -6.8000    9.6520 H   0  0  0  0  0  0  0  0  0  0  0  0
    8.3090   -8.8790   10.9960 H   0  0  0  0  0  0  0  0  0  0  0  0
    9.8000   -9.4440   12.8950 H   0  0  0  0  0  0  0  0  0  0  0  0
   11.7400   -7.9580   13.4710 H   0  0  0  0  0  0  0  0  0  0  0  0
   12.8670   -5.6020   12.7410 H   0  0  0  0  0  0  0  0  0  0  0  0
  1 10  1  0  0  0  0
  1  4  2  0  0  0  0
  1  2  1  0  0  0  0
  2 19  1  0  0  0  0
  2 13  2  0  0  0  0
  3 14  2  0  0  0  0
  3 13  1  0  0  0  0
  3  5  1  0  0  0  0
  4 14  1  0  0  0  0
  4 34  1  0  0  0  0
  5 17  1  0  0  0  0
  5  6  1  0  0  0  0
  6 15  1  0  0  0  0
  6 35  1  0  0  0  0
  6 36  1  0  0  0  0
  7 17  1  0  0  0  0
  7 16  1  0  0  0  0
  7 37  1  0  0  0  0
  7 38  1  0  0  0  0
  8 20  1  0  0  0  0
  8 19  2  0  0  0  0
  8 25  1  0  0  0  0
  9 10  1  0  0  0  0
 10 11  1  0  0  0  0
 10 12  1  0  0  0  0
 15 16  1  0  0  0  0
 15 39  1  0  0  0  0
 15 40  1  0  0  0  0
 16 18  2  0  0  0  0
 17 41  1  0  0  0  0
 17 42  1  0  0  0  0
 19 22  1  0  0  0  0
 20 21  1  0  0  0  0
 20 24  2  0  0  0  0
 21 22  1  0  0  0  0
 21 43  1  0  0  0  0
 22 23  2  0  0  0  0
 25 29  1  0  0  0  0
 25 26  2  0  0  0  0
 26 27  1  0  0  0  0
 26 44  1  0  0  0  0
 27 28  1  0  0  0  0
 28 29  2  0  0  0  0
 28 33  1  0  0  0  0
 29 30  1  0  0  0  0
 30 31  2  0  0  0  0
 30 45  1  0  0  0  0
 31 32  1  0  0  0  0
 31 46  1  0  0  0  0
 32 33  2  0  0  0  0
 32 47  1  0  0  0  0
 33 48  1  0  0  0  0
 27 49  1  0  0  0  0
M  END
> <OPENEYE_ISO_SMILES>
c1ccc2c(c1)c(c[nH]2)C3=C(C(=O)NC3=O)c4c(cnc(n4)N5CCC(=O)CC5)C(F)(F)F

> <OPENEYE_INCHI>
InChI=1S/C22H16F3N5O3/c23-22(24,25)14-10-27-21(30-7-5-11(31)6-8-30)28-18(14)17-16(19(32)29-20(17)33)13-9-26-15-4-2-1-3-12(13)15/h1-4,9-10,26H,5-8H2,(H,29,32,33)

> <OPENEYE_INCHIKEY>
MYIILBMNTUDZDH-UHFFFAOYSA-N

> <FORMULA>
C22H16F3N5O3

$$$$
