9GX
  -OEChem-11082419093D

 49 52  0     0  0  0  0  0  0999 V2000
    3.5660   -0.3190    0.3350 C   0  0  0  0  0  0  0  0  0  0  0  0
    4.7740    0.0380   -0.2610 C   0  0  0  0  0  0  0  0  0  0  0  0
    6.0550    1.1410   -1.9340 C   0  0  0  0  0  0  0  0  0  0  0  0
    5.9690   -0.4020    0.2840 C   0  0  0  0  0  0  0  0  0  0  0  0
   -5.8440    0.2230    0.5740 C   0  0  0  0  0  0  0  0  0  0  0  0
   -4.3740    0.2830    0.2570 C   0  0  0  0  0  0  0  0  0  0  0  0
   -3.6470    1.4120    0.6900 C   0  0  0  0  0  0  0  0  0  0  0  0
   -1.7240    0.4680   -0.2510 C   0  0  0  0  0  0  0  0  0  0  0  0
    0.2760   -0.4800   -1.3490 C   0  0  0  0  0  0  0  0  0  0  0  0
    1.5040   -1.0040   -0.5970 C   0  0  0  0  0  0  0  0  0  0  0  0
    5.9610   -1.1940    1.4190 C   0  0  0  0  0  0  0  0  0  0  0  0
    4.7640   -1.5480    2.0110 C   0  0  0  0  0  0  0  0  0  0  0  0
    3.5670   -1.1130    1.4720 C   0  0  0  0  0  0  0  0  0  0  0  0
    1.6600    1.0240    0.7230 C   0  0  0  0  0  0  0  0  0  0  0  0
    0.4380    1.6310    0.0260 C   0  0  0  0  0  0  0  0  0  0  0  0
   -3.7230   -0.6960   -0.4210 C   0  0  0  0  0  0  0  0  0  0  0  0
   -4.4200   -1.9270   -0.9400 C   0  0  0  0  0  0  0  0  0  0  0  0
   -5.7620   -2.1210   -0.2360 C   0  0  0  0  0  0  0  0  0  0  0  0
   -6.5440   -0.8040   -0.3140 C   0  0  0  0  0  0  0  0  0  0  0  0
   -2.3270    1.4830    0.4260 N   0  0  0  0  0  0  0  0  0  0  0  0
   -0.3830    0.5370   -0.5160 N   0  0  0  0  0  0  0  0  0  0  0  0
    2.3570    0.1270   -0.2080 N   0  0  0  0  0  0  0  0  0  0  0  0
   -2.4110   -0.5780   -0.6550 N   0  0  0  0  0  0  0  0  0  0  0  0
   -4.2050    2.3130    1.2950 O   0  0  0  0  0  0  0  0  0  0  0  0
    4.7800    0.8160   -1.3770 O   0  0  0  0  0  0  0  0  0  0  0  0
    6.5750    0.2250   -2.2140 H   0  0  0  0  0  0  0  0  0  0  0  0
    5.9170    1.7640   -2.8180 H   0  0  0  0  0  0  0  0  0  0  0  0
    6.6460    1.6830   -1.1960 H   0  0  0  0  0  0  0  0  0  0  0  0
    6.9060   -0.1280   -0.1760 H   0  0  0  0  0  0  0  0  0  0  0  0
   -5.9750   -0.0570    1.6190 H   0  0  0  0  0  0  0  0  0  0  0  0
   -6.2880    1.2040    0.4060 H   0  0  0  0  0  0  0  0  0  0  0  0
    0.5880   -0.0340   -2.2930 H   0  0  0  0  0  0  0  0  0  0  0  0
   -0.4130   -1.3020   -1.5410 H   0  0  0  0  0  0  0  0  0  0  0  0
    1.1830   -1.5400    0.2960 H   0  0  0  0  0  0  0  0  0  0  0  0
    2.0660   -1.6780   -1.2430 H   0  0  0  0  0  0  0  0  0  0  0  0
    6.8940   -1.5360    1.8430 H   0  0  0  0  0  0  0  0  0  0  0  0
    4.7630   -2.1670    2.8960 H   0  0  0  0  0  0  0  0  0  0  0  0
    2.6320   -1.3910    1.9370 H   0  0  0  0  0  0  0  0  0  0  0  0
    2.3350    1.8220    1.0340 H   0  0  0  0  0  0  0  0  0  0  0  0
    1.3370    0.4600    1.5980 H   0  0  0  0  0  0  0  0  0  0  0  0
   -0.1460    2.2060    0.7440 H   0  0  0  0  0  0  0  0  0  0  0  0
    0.7650    2.2830   -0.7850 H   0  0  0  0  0  0  0  0  0  0  0  0
   -4.5880   -1.8200   -2.0110 H   0  0  0  0  0  0  0  0  0  0  0  0
   -3.7910   -2.7990   -0.7600 H   0  0  0  0  0  0  0  0  0  0  0  0
   -6.3250   -2.9120   -0.7320 H   0  0  0  0  0  0  0  0  0  0  0  0
   -5.5940   -2.3880    0.8070 H   0  0  0  0  0  0  0  0  0  0  0  0
   -7.5630   -0.9610    0.0380 H   0  0  0  0  0  0  0  0  0  0  0  0
   -6.5610   -0.4480   -1.3440 H   0  0  0  0  0  0  0  0  0  0  0  0
   -1.8110    2.2510    0.7160 H   0  0  0  0  0  0  0  0  0  0  0  0
  5 19  1  0  0  0  0
 18 19  1  0  0  0  0
  5  6  1  0  0  0  0
 17 18  1  0  0  0  0
  7 24  2  0  0  0  0
  6  7  1  0  0  0  0
  6 16  2  0  0  0  0
 16 17  1  0  0  0  0
  7 20  1  0  0  0  0
 16 23  1  0  0  0  0
  8 20  1  0  0  0  0
  8 23  2  0  0  0  0
  8 21  1  0  0  0  0
 15 21  1  0  0  0  0
  9 21  1  0  0  0  0
 14 15  1  0  0  0  0
  9 10  1  0  0  0  0
 14 22  1  0  0  0  0
 10 22  1  0  0  0  0
  1 22  1  0  0  0  0
  1 13  2  0  0  0  0
  1  2  1  0  0  0  0
 12 13  1  0  0  0  0
  2 25  1  0  0  0  0
  3 25  1  0  0  0  0
  2  4  2  0  0  0  0
 11 12  2  0  0  0  0
  4 11  1  0  0  0  0
  3 26  1  0  0  0  0
  3 27  1  0  0  0  0
  3 28  1  0  0  0  0
  4 29  1  0  0  0  0
  5 30  1  0  0  0  0
  5 31  1  0  0  0  0
  9 32  1  0  0  0  0
  9 33  1  0  0  0  0
 10 34  1  0  0  0  0
 10 35  1  0  0  0  0
 11 36  1  0  0  0  0
 12 37  1  0  0  0  0
 13 38  1  0  0  0  0
 14 39  1  0  0  0  0
 14 40  1  0  0  0  0
 15 41  1  0  0  0  0
 15 42  1  0  0  0  0
 17 43  1  0  0  0  0
 17 44  1  0  0  0  0
 18 45  1  0  0  0  0
 18 46  1  0  0  0  0
 19 47  1  0  0  0  0
 19 48  1  0  0  0  0
 20 49  1  0  0  0  0
M  END
> <OPENEYE_ISO_SMILES>
COc1ccccc1N2CCN(CC2)c3[nH]c(=O)c4c(n3)CCCC4

> <OPENEYE_INCHI>
InChI=1S/C19H24N4O2/c1-25-17-9-5-4-8-16(17)22-10-12-23(13-11-22)19-20-15-7-3-2-6-14(15)18(24)21-19/h4-5,8-9H,2-3,6-7,10-13H2,1H3,(H,20,21,24)

> <OPENEYE_INCHIKEY>
OQNRYQMRIGYPGK-UHFFFAOYSA-N

> <FORMULA>
C19H24N4O2

$$$$
