C20
  -OEChem-11082419093D

 92 93  0     1  0  0  0  0  0999 V2000
   -0.1020    0.2900   -7.8310 C   0  0  0  0  0  0  0  0  0  0  0  0
    0.2890   -0.3370   -6.5180 C   0  0  0  0  0  0  0  0  0  0  0  0
    0.7290   -1.4670   -6.4940 O   0  0  0  0  0  0  0  0  0  0  0  0
    0.1500    0.3560   -5.3710 N   0  0  0  0  0  0  0  0  0  0  0  0
    0.5310   -0.2530   -4.0950 C   0  0  1  0  0  0  0  0  0  0  0  0
    2.0010    0.0510   -3.8020 C   0  0  0  0  0  0  0  0  0  0  0  0
    2.8830   -0.6340   -4.8470 C   0  0  0  0  0  0  0  0  0  0  0  0
    2.2280    1.5630   -3.8570 C   0  0  0  0  0  0  0  0  0  0  0  0
   -0.3280    0.3090   -2.9920 C   0  0  0  0  0  0  0  0  0  0  0  0
   -0.9410    1.3400   -3.1680 O   0  0  0  0  0  0  0  0  0  0  0  0
   -0.4140   -0.3330   -1.8110 N   0  0  0  0  0  0  0  0  0  0  0  0
   -1.3290    0.1560   -0.7760 C   0  0  1  0  0  0  0  0  0  0  0  0
   -2.6960   -0.5080   -0.9470 C   0  0  0  0  0  0  0  0  0  0  0  0
   -3.2510   -0.1730   -2.3080 C   0  0  0  0  0  0  0  0  0  0  0  0
   -2.9750   -0.9910   -3.3870 C   0  0  0  0  0  0  0  0  0  0  0  0
   -3.4840   -0.6840   -4.6350 C   0  0  0  0  0  0  0  0  0  0  0  0
   -4.2690    0.4400   -4.8030 C   0  0  0  0  0  0  0  0  0  0  0  0
   -4.5460    1.2580   -3.7230 C   0  0  0  0  0  0  0  0  0  0  0  0
   -4.0400    0.9480   -2.4750 C   0  0  0  0  0  0  0  0  0  0  0  0
   -0.7650   -0.1830    0.6040 C   0  0  1  0  0  0  0  0  0  0  0  0
   -0.6240   -1.6000    0.7250 O   0  0  0  0  0  0  0  0  0  0  0  0
    0.6010    0.4810    0.7750 C   0  0  0  0  0  0  0  0  0  0  0  0
    1.1420    0.1550    2.1010 N   0  0  1  0  0  0  0  0  0  0  0  0
    2.3740    0.9400    2.2600 C   0  0  0  0  0  0  0  0  0  0  0  0
    3.4720    0.3500    1.3730 C   0  0  0  0  0  0  0  0  0  0  0  0
    4.7070    1.2520    1.4230 C   0  0  0  0  0  0  0  0  0  0  0  0
    5.8060    0.6620    0.5370 C   0  0  0  0  0  0  0  0  0  0  0  0
    6.1730   -0.7340    1.0410 C   0  0  0  0  0  0  0  0  0  0  0  0
    4.9380   -1.6360    0.9910 C   0  0  0  0  0  0  0  0  0  0  0  0
    3.8400   -1.0460    1.8780 C   0  0  0  0  0  0  0  0  0  0  0  0
    0.2500    0.6340    3.0180 N   0  0  0  0  0  0  0  0  0  0  0  0
   -0.2560   -0.1860    3.9590 C   0  0  0  0  0  0  0  0  0  0  0  0
    0.0250   -1.3660    3.9490 O   0  0  0  0  0  0  0  0  0  0  0  0
   -1.1720    0.3600    5.0220 C   0  0  1  0  0  0  0  0  0  0  0  0
   -2.0630   -0.7020    5.4940 N   0  0  0  0  0  0  0  0  0  0  0  0
   -0.3390    0.8840    6.1940 C   0  0  0  0  0  0  0  0  0  0  0  0
    0.5320   -0.2450    6.7450 C   0  0  0  0  0  0  0  0  0  0  0  0
    0.5540    2.0280    5.7120 C   0  0  0  0  0  0  0  0  0  0  0  0
   -3.2970   -0.3980    5.9420 C   0  0  0  0  0  0  0  0  0  0  0  0
   -3.6700    0.7550    5.9560 O   0  0  0  0  0  0  0  0  0  0  0  0
   -4.2130   -1.4920    6.4270 C   0  0  0  0  0  0  0  0  0  0  0  0
    0.4900    1.1900   -7.9940 H   0  0  0  0  0  0  0  0  0  0  0  0
    0.0790   -0.4160   -8.6400 H   0  0  0  0  0  0  0  0  0  0  0  0
   -1.1600    0.5510   -7.8070 H   0  0  0  0  0  0  0  0  0  0  0  0
   -0.2010    1.2600   -5.3900 H   0  0  0  0  0  0  0  0  0  0  0  0
    0.3880   -1.3330   -4.1510 H   0  0  0  0  0  0  0  0  0  0  0  0
    2.2590   -0.3180   -2.8100 H   0  0  0  0  0  0  0  0  0  0  0  0
    3.9300   -0.4160   -4.6390 H   0  0  0  0  0  0  0  0  0  0  0  0
    2.7210   -1.7110   -4.8090 H   0  0  0  0  0  0  0  0  0  0  0  0
    2.6250   -0.2640   -5.8400 H   0  0  0  0  0  0  0  0  0  0  0  0
    2.0410    1.9230   -4.8680 H   0  0  0  0  0  0  0  0  0  0  0  0
    1.5480    2.0580   -3.1630 H   0  0  0  0  0  0  0  0  0  0  0  0
    3.2580    1.7860   -3.5770 H   0  0  0  0  0  0  0  0  0  0  0  0
    0.1280   -1.1190   -1.6450 H   0  0  0  0  0  0  0  0  0  0  0  0
   -1.4360    1.2370   -0.8680 H   0  0  0  0  0  0  0  0  0  0  0  0
   -2.5880   -1.5890   -0.8550 H   0  0  0  0  0  0  0  0  0  0  0  0
   -3.3760   -0.1440   -0.1770 H   0  0  0  0  0  0  0  0  0  0  0  0
   -2.3620   -1.8710   -3.2560 H   0  0  0  0  0  0  0  0  0  0  0  0
   -3.2690   -1.3230   -5.4790 H   0  0  0  0  0  0  0  0  0  0  0  0
   -4.6660    0.6810   -5.7780 H   0  0  0  0  0  0  0  0  0  0  0  0
   -5.1580    2.1380   -3.8550 H   0  0  0  0  0  0  0  0  0  0  0  0
   -4.2560    1.5870   -1.6310 H   0  0  0  0  0  0  0  0  0  0  0  0
   -1.4450    0.1800    1.3740 H   0  0  0  0  0  0  0  0  0  0  0  0
   -0.0160   -1.8810    0.0280 H   0  0  0  0  0  0  0  0  0  0  0  0
    1.2810    0.1170    0.0050 H   0  0  0  0  0  0  0  0  0  0  0  0
    0.4930    1.5620    0.6830 H   0  0  0  0  0  0  0  0  0  0  0  0
    2.1860    1.9730    1.9670 H   0  0  0  0  0  0  0  0  0  0  0  0
    2.6920    0.9090    3.3020 H   0  0  0  0  0  0  0  0  0  0  0  0
    3.1130    0.2820    0.3460 H   0  0  0  0  0  0  0  0  0  0  0  0
    4.4450    2.2470    1.0640 H   0  0  0  0  0  0  0  0  0  0  0  0
    5.0660    1.3190    2.4500 H   0  0  0  0  0  0  0  0  0  0  0  0
    5.4470    0.5940   -0.4890 H   0  0  0  0  0  0  0  0  0  0  0  0
    6.6860    1.3040    0.5720 H   0  0  0  0  0  0  0  0  0  0  0  0
    6.9560   -1.1550    0.4090 H   0  0  0  0  0  0  0  0  0  0  0  0
    6.5320   -0.6670    2.0680 H   0  0  0  0  0  0  0  0  0  0  0  0
    4.5790   -1.7030   -0.0350 H   0  0  0  0  0  0  0  0  0  0  0  0
    5.2000   -2.6310    1.3500 H   0  0  0  0  0  0  0  0  0  0  0  0
    4.1990   -0.9790    2.9050 H   0  0  0  0  0  0  0  0  0  0  0  0
    2.9600   -1.6880    1.8420 H   0  0  0  0  0  0  0  0  0  0  0  0
   -0.0170    1.5660    2.9920 H   0  0  0  0  0  0  0  0  0  0  0  0
   -1.7660    1.1740    4.6070 H   0  0  0  0  0  0  0  0  0  0  0  0
   -1.7650   -1.6250    5.4830 H   0  0  0  0  0  0  0  0  0  0  0  0
   -1.0030    1.2470    6.9790 H   0  0  0  0  0  0  0  0  0  0  0  0
    1.0530    0.0990    7.6380 H   0  0  0  0  0  0  0  0  0  0  0  0
   -0.0960   -1.0990    6.9990 H   0  0  0  0  0  0  0  0  0  0  0  0
    1.2610   -0.5430    5.9920 H   0  0  0  0  0  0  0  0  0  0  0  0
    1.2360    1.6600    4.9460 H   0  0  0  0  0  0  0  0  0  0  0  0
   -0.0650    2.8230    5.2960 H   0  0  0  0  0  0  0  0  0  0  0  0
    1.1290    2.4190    6.5520 H   0  0  0  0  0  0  0  0  0  0  0  0
   -5.1600   -1.0570    6.7480 H   0  0  0  0  0  0  0  0  0  0  0  0
   -4.3940   -2.2000    5.6180 H   0  0  0  0  0  0  0  0  0  0  0  0
   -3.7480   -2.0100    7.2660 H   0  0  0  0  0  0  0  0  0  0  0  0
  1  2  1  0  0  0  0
  1 42  1  0  0  0  0
  1 43  1  0  0  0  0
  1 44  1  0  0  0  0
  2  3  2  0  0  0  0
  2  4  1  0  0  0  0
  4  5  1  0  0  0  0
  4 45  1  0  0  0  0
  5  6  1  0  0  0  0
  5  9  1  0  0  0  0
  5 46  1  0  0  0  0
  6  7  1  0  0  0  0
  6  8  1  0  0  0  0
  6 47  1  0  0  0  0
  7 48  1  0  0  0  0
  7 49  1  0  0  0  0
  7 50  1  0  0  0  0
  8 51  1  0  0  0  0
  8 52  1  0  0  0  0
  8 53  1  0  0  0  0
  9 10  2  0  0  0  0
  9 11  1  0  0  0  0
 11 12  1  0  0  0  0
 11 54  1  0  0  0  0
 12 13  1  0  0  0  0
 12 20  1  0  0  0  0
 12 55  1  0  0  0  0
 13 14  1  0  0  0  0
 13 56  1  0  0  0  0
 13 57  1  0  0  0  0
 14 15  2  0  0  0  0
 14 19  1  0  0  0  0
 15 16  1  0  0  0  0
 15 58  1  0  0  0  0
 16 17  2  0  0  0  0
 16 59  1  0  0  0  0
 17 18  1  0  0  0  0
 17 60  1  0  0  0  0
 18 19  2  0  0  0  0
 18 61  1  0  0  0  0
 19 62  1  0  0  0  0
 20 21  1  0  0  0  0
 20 22  1  0  0  0  0
 20 63  1  0  0  0  0
 21 64  1  0  0  0  0
 22 23  1  0  0  0  0
 22 65  1  0  0  0  0
 22 66  1  0  0  0  0
 23 24  1  0  0  0  0
 23 31  1  0  0  0  0
 24 25  1  0  0  0  0
 24 67  1  0  0  0  0
 24 68  1  0  0  0  0
 25 26  1  0  0  0  0
 25 30  1  0  0  0  0
 25 69  1  0  0  0  0
 26 27  1  0  0  0  0
 26 70  1  0  0  0  0
 26 71  1  0  0  0  0
 27 28  1  0  0  0  0
 27 72  1  0  0  0  0
 27 73  1  0  0  0  0
 28 29  1  0  0  0  0
 28 74  1  0  0  0  0
 28 75  1  0  0  0  0
 29 30  1  0  0  0  0
 29 76  1  0  0  0  0
 29 77  1  0  0  0  0
 30 78  1  0  0  0  0
 30 79  1  0  0  0  0
 31 32  1  0  0  0  0
 31 80  1  0  0  0  0
 32 33  2  0  0  0  0
 32 34  1  0  0  0  0
 34 35  1  0  0  0  0
 34 36  1  0  0  0  0
 34 81  1  0  0  0  0
 35 39  1  0  0  0  0
 35 82  1  0  0  0  0
 36 37  1  0  0  0  0
 36 38  1  0  0  0  0
 36 83  1  0  0  0  0
 37 84  1  0  0  0  0
 37 85  1  0  0  0  0
 37 86  1  0  0  0  0
 38 87  1  0  0  0  0
 38 88  1  0  0  0  0
 38 89  1  0  0  0  0
 39 40  2  0  0  0  0
 39 41  1  0  0  0  0
 41 90  1  0  0  0  0
 41 91  1  0  0  0  0
 41 92  1  0  0  0  0
M  END
> <OPENEYE_ISO_SMILES>
CC(C)[C@@H](C(=O)N[C@@H](Cc1ccccc1)[C@H](C[N@@](CC2CCCCC2)NC(=O)[C@H](C(C)C)NC(=O)C)O)NC(=O)C

> <OPENEYE_INCHI>
InChI=1S/C31H51N5O5/c1-20(2)28(32-22(5)37)30(40)34-26(17-24-13-9-7-10-14-24)27(39)19-36(18-25-15-11-8-12-16-25)35-31(41)29(21(3)4)33-23(6)38/h7,9-10,13-14,20-21,25-29,39H,8,11-12,15-19H2,1-6H3,(H,32,37)(H,33,38)(H,34,40)(H,35,41)/t26-,27-,28-,29-/m0/s1

> <OPENEYE_INCHIKEY>
JNBVLGDICHLLTN-DZUOILHNSA-N

> <FORMULA>
C31H51N5O5

$$$$
