AAZ
  -OEChem-11082419093D

 52 55  0     0  0  0  0  0  0999 V2000
    1.2910    0.4850    6.4960 O   0  0  0  0  0  0  0  0  0  0  0  0
    1.5080    0.0030    5.1770 S   0  0  0  0  0  0  0  0  0  0  0  0
    2.2890    0.7190    4.2300 O   0  0  0  0  0  0  0  0  0  0  0  0
    1.9040   -1.7660    5.1680 C   0  0  0  0  0  0  0  0  0  0  0  0
    3.2980   -1.9800    5.7600 C   0  0  0  0  0  0  0  0  0  0  0  0
   -0.1050    0.0560    4.4710 C   0  0  0  0  0  0  0  0  0  0  0  0
   -1.2180   -0.0350    5.2870 C   0  0  0  0  0  0  0  0  0  0  0  0
   -2.4870    0.0060    4.7400 C   0  0  0  0  0  0  0  0  0  0  0  0
   -2.6470    0.1400    3.3700 C   0  0  0  0  0  0  0  0  0  0  0  0
   -3.8940    0.1800    2.8300 O   0  0  0  0  0  0  0  0  0  0  0  0
   -4.8170    0.0640    3.9150 C   0  0  0  0  0  0  0  0  0  0  0  0
   -1.5260    0.2330    2.5470 C   0  0  0  0  0  0  0  0  0  0  0  0
   -0.2560    0.1960    3.1050 C   0  0  0  0  0  0  0  0  0  0  0  0
   -1.6810    0.3690    1.1630 N   0  0  0  0  0  0  0  0  0  0  0  0
   -0.5800    0.2940    0.3340 C   0  0  0  0  0  0  0  0  0  0  0  0
    0.6350   -0.0260    0.7080 N   0  0  0  0  0  0  0  0  0  0  0  0
    1.4400    0.0020   -0.3650 C   0  0  0  0  0  0  0  0  0  0  0  0
    0.6870    0.3630   -1.4340 C   0  0  0  0  0  0  0  0  0  0  0  0
   -0.5770    0.5440   -0.9840 O   0  0  0  0  0  0  0  0  0  0  0  0
    1.1570    0.5270   -2.8250 C   0  0  0  0  0  0  0  0  0  0  0  0
    2.3970    1.1180   -3.0800 C   0  0  0  0  0  0  0  0  0  0  0  0
    2.8360    1.2710   -4.3790 C   0  0  0  0  0  0  0  0  0  0  0  0
    2.0540    0.8420   -5.4340 C   0  0  0  0  0  0  0  0  0  0  0  0
    0.8140    0.2520   -5.1930 C   0  0  0  0  0  0  0  0  0  0  0  0
    0.3660    0.0880   -3.8860 C   0  0  0  0  0  0  0  0  0  0  0  0
   -0.0230   -0.2060   -6.3280 C   0  0  0  0  0  0  0  0  0  0  0  0
    0.5740   -0.8310   -7.4200 C   0  0  0  0  0  0  0  0  0  0  0  0
   -0.2190   -1.2530   -8.4720 C   0  0  0  0  0  0  0  0  0  0  0  0
   -1.5880   -1.0360   -8.3970 C   0  0  0  0  0  0  0  0  0  0  0  0
   -2.1150   -0.4100   -7.2820 C   0  0  0  0  0  0  0  0  0  0  0  0
   -1.3360   -0.0220   -6.2930 N   0  0  0  0  0  0  0  0  0  0  0  0
    1.8830   -2.1380    4.1440 H   0  0  0  0  0  0  0  0  0  0  0  0
    1.1690   -2.3060    5.7660 H   0  0  0  0  0  0  0  0  0  0  0  0
    3.5370   -3.0430    5.7550 H   0  0  0  0  0  0  0  0  0  0  0  0
    4.0330   -1.4400    5.1630 H   0  0  0  0  0  0  0  0  0  0  0  0
    3.3190   -1.6080    6.7850 H   0  0  0  0  0  0  0  0  0  0  0  0
   -1.0950   -0.1400    6.3550 H   0  0  0  0  0  0  0  0  0  0  0  0
   -3.3540   -0.0660    5.3800 H   0  0  0  0  0  0  0  0  0  0  0  0
   -5.8360    0.0920    3.5290 H   0  0  0  0  0  0  0  0  0  0  0  0
   -4.6510   -0.8790    4.4330 H   0  0  0  0  0  0  0  0  0  0  0  0
   -4.6690    0.8910    4.6090 H   0  0  0  0  0  0  0  0  0  0  0  0
    0.6140    0.2680    2.4700 H   0  0  0  0  0  0  0  0  0  0  0  0
   -2.5630    0.5160    0.7850 H   0  0  0  0  0  0  0  0  0  0  0  0
    2.4970   -0.2180   -0.3760 H   0  0  0  0  0  0  0  0  0  0  0  0
    3.0130    1.4550   -2.2590 H   0  0  0  0  0  0  0  0  0  0  0  0
    3.7950    1.7290   -4.5720 H   0  0  0  0  0  0  0  0  0  0  0  0
    2.4040    0.9650   -6.4490 H   0  0  0  0  0  0  0  0  0  0  0  0
   -0.5920   -0.3680   -3.6950 H   0  0  0  0  0  0  0  0  0  0  0  0
    1.6430   -0.9830   -7.4460 H   0  0  0  0  0  0  0  0  0  0  0  0
    0.2150   -1.7400   -9.3320 H   0  0  0  0  0  0  0  0  0  0  0  0
   -2.2360   -1.3540   -9.2010 H   0  0  0  0  0  0  0  0  0  0  0  0
   -3.1800   -0.2390   -7.2210 H   0  0  0  0  0  0  0  0  0  0  0  0
  1  2  2  0  0  0  0
  2  3  2  0  0  0  0
  2  4  1  0  0  0  0
  2  6  1  0  0  0  0
  4  5  1  0  0  0  0
  4 32  1  0  0  0  0
  4 33  1  0  0  0  0
  5 34  1  0  0  0  0
  5 35  1  0  0  0  0
  5 36  1  0  0  0  0
  6  7  2  0  0  0  0
  6 13  1  0  0  0  0
  7  8  1  0  0  0  0
  7 37  1  0  0  0  0
  8  9  2  0  0  0  0
  8 38  1  0  0  0  0
  9 10  1  0  0  0  0
  9 12  1  0  0  0  0
 10 11  1  0  0  0  0
 11 39  1  0  0  0  0
 11 40  1  0  0  0  0
 11 41  1  0  0  0  0
 12 13  2  0  0  0  0
 12 14  1  0  0  0  0
 13 42  1  0  0  0  0
 14 15  1  0  0  0  0
 14 43  1  0  0  0  0
 15 16  2  0  0  0  0
 15 19  1  0  0  0  0
 16 17  1  0  0  0  0
 17 18  2  0  0  0  0
 17 44  1  0  0  0  0
 18 19  1  0  0  0  0
 18 20  1  0  0  0  0
 20 21  2  0  0  0  0
 20 25  1  0  0  0  0
 21 22  1  0  0  0  0
 21 45  1  0  0  0  0
 22 23  2  0  0  0  0
 22 46  1  0  0  0  0
 23 24  1  0  0  0  0
 23 47  1  0  0  0  0
 24 25  2  0  0  0  0
 24 26  1  0  0  0  0
 25 48  1  0  0  0  0
 26 27  2  0  0  0  0
 26 31  1  0  0  0  0
 27 28  1  0  0  0  0
 27 49  1  0  0  0  0
 28 29  2  0  0  0  0
 28 50  1  0  0  0  0
 29 30  1  0  0  0  0
 29 51  1  0  0  0  0
 30 31  2  0  0  0  0
 30 52  1  0  0  0  0
M  END
> <OPENEYE_ISO_SMILES>
CCS(=O)(=O)c1ccc(c(c1)Nc2ncc(o2)c3cccc(c3)c4ccccn4)OC

> <OPENEYE_INCHI>
InChI=1S/C23H21N3O4S/c1-3-31(27,28)18-10-11-21(29-2)20(14-18)26-23-25-15-22(30-23)17-8-6-7-16(13-17)19-9-4-5-12-24-19/h4-15H,3H2,1-2H3,(H,25,26)

> <OPENEYE_INCHIKEY>
HTIZPBXCJPQDEM-UHFFFAOYSA-N

> <FORMULA>
C23H21N3O4S

$$$$
