PVB
  -OEChem-11082419103D

 55 57  0     1  0  0  0  0  0999 V2000
   -0.1660    0.2160    0.1140 N   0  0  0  0  0  0  0  0  0  0  0  0
   -5.1500    1.5640   -0.5010 C   0  0  0  0  0  0  0  0  0  0  0  0
   -3.7720    2.0190   -0.2990 N   0  0  0  0  0  0  0  0  0  0  0  0
   -2.6620    1.2210   -0.1810 C   0  0  0  0  0  0  0  0  0  0  0  0
   -2.4450   -0.0900   -0.2020 N   0  0  0  0  0  0  0  0  0  0  0  0
   -1.2210   -0.5710   -0.0570 C   0  0  0  0  0  0  0  0  0  0  0  0
   -0.2930    1.5370    0.1480 C   0  0  0  0  0  0  0  0  0  0  0  0
   -1.5760    2.0930   -0.0020 C   0  0  0  0  0  0  0  0  0  0  0  0
   -2.0690    3.3560   -0.0200 N   0  0  0  0  0  0  0  0  0  0  0  0
   -3.3580    3.3150   -0.1940 C   0  0  0  0  0  0  0  0  0  0  0  0
    0.8140    2.3500    0.3280 N   0  0  0  0  0  0  0  0  0  0  0  0
    2.0910    1.7980    0.3210 C   0  0  0  0  0  0  0  0  0  0  0  0
    3.0820    2.3320    1.1410 C   0  0  0  0  0  0  0  0  0  0  0  0
    4.3470    1.7890    1.1370 C   0  0  0  0  0  0  0  0  0  0  0  0
    4.6360    0.7000    0.3100 C   0  0  0  0  0  0  0  0  0  0  0  0
    3.6380    0.1640   -0.5120 C   0  0  0  0  0  0  0  0  0  0  0  0
    3.9910   -1.1880   -1.5410 Cl  0  0  0  0  0  0  0  0  0  0  0  0
    2.3730    0.7100   -0.4990 C   0  0  0  0  0  0  0  0  0  0  0  0
    5.9890    0.1160    0.3040 C   0  0  0  0  0  0  0  0  0  0  0  0
    6.9500    0.6330    1.0960 O   0  0  0  0  0  0  0  0  0  0  0  0
    6.2390   -0.8310   -0.4150 O   0  0  0  0  0  0  0  0  0  0  0  0
   -1.0340   -1.9430   -0.0860 N   0  0  0  0  0  0  0  0  0  0  0  0
   -2.1910   -2.8390   -0.1570 C   0  0  2  0  0  0  0  0  0  0  0  0
   -2.6020   -3.2540    1.2570 C   0  0  0  0  0  0  0  0  0  0  0  0
   -3.0680   -2.0220    2.0360 C   0  0  0  0  0  0  0  0  0  0  0  0
   -3.7440   -4.2700    1.1790 C   0  0  0  0  0  0  0  0  0  0  0  0
   -1.8240   -4.0830   -0.9680 C   0  0  0  0  0  0  0  0  0  0  0  0
   -0.8160   -4.8230   -0.2750 O   0  0  0  0  0  0  0  0  0  0  0  0
   -6.0210    2.0420    0.6620 C   0  0  0  0  0  0  0  0  0  0  0  0
   -5.6900    2.1380   -1.8130 C   0  0  0  0  0  0  0  0  0  0  0  0
   -5.1700    0.4750   -0.5460 H   0  0  0  0  0  0  0  0  0  0  0  0
   -6.0020    3.1310    0.7070 H   0  0  0  0  0  0  0  0  0  0  0  0
   -7.0460    1.7030    0.5120 H   0  0  0  0  0  0  0  0  0  0  0  0
   -5.6370    1.6330    1.5960 H   0  0  0  0  0  0  0  0  0  0  0  0
   -5.0690    1.7970   -2.6410 H   0  0  0  0  0  0  0  0  0  0  0  0
   -6.7150    1.7990   -1.9630 H   0  0  0  0  0  0  0  0  0  0  0  0
   -5.6700    3.2270   -1.7680 H   0  0  0  0  0  0  0  0  0  0  0  0
   -4.0040    4.1790   -0.2470 H   0  0  0  0  0  0  0  0  0  0  0  0
   -0.1370   -2.3110   -0.0590 H   0  0  0  0  0  0  0  0  0  0  0  0
    0.6980    3.3050    0.4580 H   0  0  0  0  0  0  0  0  0  0  0  0
    2.8580    3.1740    1.7790 H   0  0  0  0  0  0  0  0  0  0  0  0
    1.6000    0.2960   -1.1300 H   0  0  0  0  0  0  0  0  0  0  0  0
    5.1150    2.2050    1.7730 H   0  0  0  0  0  0  0  0  0  0  0  0
    7.8220    0.2170    1.0570 H   0  0  0  0  0  0  0  0  0  0  0  0
   -3.0210   -2.3220   -0.6390 H   0  0  0  0  0  0  0  0  0  0  0  0
   -1.7500   -3.7050    1.7660 H   0  0  0  0  0  0  0  0  0  0  0  0
   -2.7090   -4.7070   -1.0960 H   0  0  0  0  0  0  0  0  0  0  0  0
   -1.4480   -3.7820   -1.9450 H   0  0  0  0  0  0  0  0  0  0  0  0
   -3.9590   -1.6090    1.5630 H   0  0  0  0  0  0  0  0  0  0  0  0
   -3.3000   -2.3070    3.0620 H   0  0  0  0  0  0  0  0  0  0  0  0
   -2.2760   -1.2730    2.0370 H   0  0  0  0  0  0  0  0  0  0  0  0
   -3.3830   -5.1870    0.7130 H   0  0  0  0  0  0  0  0  0  0  0  0
   -4.1030   -4.4900    2.1840 H   0  0  0  0  0  0  0  0  0  0  0  0
   -4.5580   -3.8560    0.5850 H   0  0  0  0  0  0  0  0  0  0  0  0
   -0.5350   -5.6270   -0.7330 H   0  0  0  0  0  0  0  0  0  0  0  0
  1  6  1  0  0  0  0
  1  7  2  0  0  0  0
  2  3  1  0  0  0  0
  2 29  1  0  0  0  0
  2 30  1  0  0  0  0
  3  4  1  0  0  0  0
  3 10  1  0  0  0  0
  4  5  1  0  0  0  0
  4  8  2  0  0  0  0
  5  6  2  0  0  0  0
  6 22  1  0  0  0  0
  7  8  1  0  0  0  0
  7 11  1  0  0  0  0
  8  9  1  0  0  0  0
  9 10  2  0  0  0  0
 11 12  1  0  0  0  0
 12 13  2  0  0  0  0
 12 18  1  0  0  0  0
 13 14  1  0  0  0  0
 14 15  2  0  0  0  0
 15 16  1  0  0  0  0
 15 19  1  0  0  0  0
 16 17  1  0  0  0  0
 16 18  2  0  0  0  0
 19 20  1  0  0  0  0
 19 21  2  0  0  0  0
 22 23  1  0  0  0  0
 23 24  1  0  0  0  0
 23 27  1  0  0  0  0
 24 25  1  0  0  0  0
 24 26  1  0  0  0  0
 27 28  1  0  0  0  0
  2 31  1  0  0  0  0
 29 32  1  0  0  0  0
 29 33  1  0  0  0  0
 29 34  1  0  0  0  0
 30 35  1  0  0  0  0
 30 36  1  0  0  0  0
 30 37  1  0  0  0  0
 10 38  1  0  0  0  0
 22 39  1  0  0  0  0
 11 40  1  0  0  0  0
 13 41  1  0  0  0  0
 18 42  1  0  0  0  0
 14 43  1  0  0  0  0
 20 44  1  0  0  0  0
 23 45  1  0  0  0  0
 24 46  1  0  0  0  0
 27 47  1  0  0  0  0
 27 48  1  0  0  0  0
 25 49  1  0  0  0  0
 25 50  1  0  0  0  0
 25 51  1  0  0  0  0
 26 52  1  0  0  0  0
 26 53  1  0  0  0  0
 26 54  1  0  0  0  0
 28 55  1  0  0  0  0
M  END
> <OPENEYE_ISO_SMILES>
CC(C)[C@H](CO)Nc1nc(c2c(n1)n(cn2)C(C)C)Nc3ccc(c(c3)Cl)C(=O)O

> <OPENEYE_INCHI>
InChI=1S/C20H25ClN6O3/c1-10(2)15(8-28)24-20-25-17(16-18(26-20)27(9-22-16)11(3)4)23-12-5-6-13(19(29)30)14(21)7-12/h5-7,9-11,15,28H,8H2,1-4H3,(H,29,30)(H2,23,24,25,26)/t15-/m0/s1

> <OPENEYE_INCHIKEY>
ZKDXRFMOHZVXSG-HNNXBMFYSA-N

> <FORMULA>
C20H25ClN6O3

$$$$
