BM1
  -OEChem-11082419093D

 35 38  0     1  0  0  0  0  0999 V2000
   -1.3060    1.8920    0.0630 S   0  0  0  0  0  0  0  0  0  0  0  0
   -3.0210    1.2160    0.0090 C   0  0  0  0  0  0  0  0  0  0  0  0
   -2.7340   -0.3050   -0.1200 C   0  0  0  0  0  0  0  0  0  0  0  0
   -0.3950    0.3080   -0.1500 C   0  0  1  0  0  0  0  0  0  0  0  0
   -1.4520   -0.5160   -0.8070 N   0  0  0  0  0  0  0  0  0  0  0  0
   -0.8530   -1.1590   -1.8260 C   0  0  0  0  0  0  0  0  0  0  0  0
   -1.2740   -2.1660   -2.3620 O   0  0  0  0  0  0  0  0  0  0  0  0
    0.3910   -0.4560   -2.1950 C   0  0  0  0  0  0  0  0  0  0  0  0
    0.6970    0.4680   -1.1690 C   0  0  0  0  0  0  0  0  0  0  0  0
    1.2520   -0.5720   -3.2850 C   0  0  0  0  0  0  0  0  0  0  0  0
    2.3660    0.2370   -3.3720 C   0  0  0  0  0  0  0  0  0  0  0  0
    2.6370    1.1580   -2.3760 C   0  0  0  0  0  0  0  0  0  0  0  0
    1.7960    1.2680   -1.2810 C   0  0  0  0  0  0  0  0  0  0  0  0
    0.0930   -0.2720    1.1500 C   0  0  0  0  0  0  0  0  0  0  0  0
    0.4330    0.5640    2.1970 C   0  0  0  0  0  0  0  0  0  0  0  0
    0.8880    0.0310    3.3880 C   0  0  0  0  0  0  0  0  0  0  0  0
    1.2630    0.9430    4.5270 C   0  0  0  0  0  0  0  0  0  0  0  0
    0.9930   -1.3390    3.5370 C   0  0  0  0  0  0  0  0  0  0  0  0
    0.6490   -2.1760    2.4920 C   0  0  0  0  0  0  0  0  0  0  0  0
    0.1990   -1.6420    1.2980 C   0  0  0  0  0  0  0  0  0  0  0  0
   -3.5600    1.4370    0.9300 H   0  0  0  0  0  0  0  0  0  0  0  0
   -3.5630    1.5890   -0.8590 H   0  0  0  0  0  0  0  0  0  0  0  0
   -2.6900   -0.7510    0.8730 H   0  0  0  0  0  0  0  0  0  0  0  0
   -3.5330   -0.7770   -0.6920 H   0  0  0  0  0  0  0  0  0  0  0  0
    1.0490   -1.2960   -4.0610 H   0  0  0  0  0  0  0  0  0  0  0  0
    3.0290    0.1510   -4.2200 H   0  0  0  0  0  0  0  0  0  0  0  0
    3.5060    1.7940   -2.4520 H   0  0  0  0  0  0  0  0  0  0  0  0
    2.0130    1.9860   -0.5040 H   0  0  0  0  0  0  0  0  0  0  0  0
    0.3510    1.6340    2.0810 H   0  0  0  0  0  0  0  0  0  0  0  0
    2.3200    1.1990    4.4550 H   0  0  0  0  0  0  0  0  0  0  0  0
    0.6640    1.8520    4.4770 H   0  0  0  0  0  0  0  0  0  0  0  0
    1.0760    0.4370    5.4750 H   0  0  0  0  0  0  0  0  0  0  0  0
    1.3440   -1.7560    4.4690 H   0  0  0  0  0  0  0  0  0  0  0  0
    0.7310   -3.2460    2.6080 H   0  0  0  0  0  0  0  0  0  0  0  0
   -0.0680   -2.2960    0.4810 H   0  0  0  0  0  0  0  0  0  0  0  0
  1  2  1  0  0  0  0
  1  4  1  0  0  0  0
  2  3  1  0  0  0  0
  2 21  1  0  0  0  0
  2 22  1  0  0  0  0
  3  5  1  0  0  0  0
  3 23  1  0  0  0  0
  3 24  1  0  0  0  0
  4  5  1  0  0  0  0
  4  9  1  0  0  0  0
  4 14  1  0  0  0  0
  5  6  1  0  0  0  0
  6  7  2  0  0  0  0
  6  8  1  0  0  0  0
  8  9  2  0  0  0  0
  8 10  1  0  0  0  0
  9 13  1  0  0  0  0
 10 11  2  0  0  0  0
 10 25  1  0  0  0  0
 11 12  1  0  0  0  0
 11 26  1  0  0  0  0
 12 13  2  0  0  0  0
 12 27  1  0  0  0  0
 13 28  1  0  0  0  0
 14 15  2  0  0  0  0
 14 20  1  0  0  0  0
 15 16  1  0  0  0  0
 15 29  1  0  0  0  0
 16 17  1  0  0  0  0
 16 18  2  0  0  0  0
 17 30  1  0  0  0  0
 17 31  1  0  0  0  0
 17 32  1  0  0  0  0
 18 19  1  0  0  0  0
 18 33  1  0  0  0  0
 19 20  2  0  0  0  0
 19 34  1  0  0  0  0
 20 35  1  0  0  0  0
M  END
> <OPENEYE_ISO_SMILES>
Cc1cccc(c1)[C@@]23c4ccccc4C(=O)N2CCS3

> <OPENEYE_INCHI>
InChI=1S/C17H15NOS/c1-12-5-4-6-13(11-12)17-15-8-3-2-7-14(15)16(19)18(17)9-10-20-17/h2-8,11H,9-10H2,1H3/t17-/m1/s1

> <OPENEYE_INCHIKEY>
FQVDJZWFSZSGGA-QGZVFWFLSA-N

> <FORMULA>
C17H15NOS

$$$$
