DU9
  -OEChem-11082419103D

 72 77  0     1  0  0  0  0  0999 V2000
    0.1390   -0.9290    0.1690 C   0  0  0  0  0  0  0  0  0  0  0  0
    1.5180   -0.3190    0.1850 C   0  0  0  0  0  0  0  0  0  0  0  0
    1.9840    0.9590   -0.0390 C   0  0  0  0  0  0  0  0  0  0  0  0
    3.3400    1.2270    0.0460 C   0  0  0  0  0  0  0  0  0  0  0  0
    4.2260    0.2040    0.3580 C   0  0  0  0  0  0  0  0  0  0  0  0
   -7.7350    1.1720   -1.1170 C   0  0  0  0  0  0  0  0  0  0  0  0
   -6.3720    0.6000   -0.8420 C   0  0  0  0  0  0  0  0  0  0  0  0
   -5.6640   -0.0210   -1.8790 C   0  0  0  0  0  0  0  0  0  0  0  0
   -3.9110   -0.4280   -0.3710 C   0  0  0  0  0  0  0  0  0  0  0  0
   -1.8550   -1.4890   -1.2250 C   0  0  0  0  0  0  0  0  0  0  0  0
   -0.4870   -0.7970   -1.2170 C   0  0  0  0  0  0  0  0  0  0  0  0
    6.3580   -0.3980   -0.4650 C   0  0  0  0  0  0  0  0  0  0  0  0
    7.8530   -0.1150   -0.2950 C   0  0  1  0  0  0  0  0  0  0  0  0
    8.6490   -0.9570   -1.2950 C   0  0  0  0  0  0  0  0  0  0  0  0
    7.3740    2.1460    0.3330 C   0  0  1  0  0  0  0  0  0  0  0  0
    7.6830    3.6000   -0.0290 C   0  0  0  0  0  0  0  0  0  0  0  0
    5.8740    1.8870    0.1700 C   0  0  0  0  0  0  0  0  0  0  0  0
    3.7570   -1.0810    0.5840 C   0  0  0  0  0  0  0  0  0  0  0  0
    2.3940   -1.3530    0.4980 C   0  0  0  0  0  0  0  0  0  0  0  0
    2.3200   -3.8230    1.0180 C   0  0  0  0  0  0  0  0  0  0  0  0
    0.3660   -2.3840    0.5040 C   0  0  0  0  0  0  0  0  0  0  0  0
   -0.7480   -0.2740    1.2240 C   0  0  0  0  0  0  0  0  0  0  0  0
   -2.1170   -0.9620    1.2350 C   0  0  0  0  0  0  0  0  0  0  0  0
   -5.7910    0.6700    0.4110 C   0  0  0  0  0  0  0  0  0  0  0  0
   -5.9830    1.0710    2.8420 C   0  0  0  0  0  0  0  0  0  0  0  0
   -7.6370    2.0900    1.1950 C   0  0  0  0  0  0  0  0  0  0  0  0
   -8.5160    1.3380    0.1870 C   0  0  0  0  0  0  0  0  0  0  0  0
    1.1180    1.9510   -0.3420 F   0  0  0  0  0  0  0  0  0  0  0  0
   -4.4410   -0.5270   -1.6200 N   0  0  0  0  0  0  0  0  0  0  0  0
   -2.6660   -0.9440   -0.1270 N   0  0  0  0  0  0  0  0  0  0  0  0
    5.5950    0.4700    0.4440 N   0  0  0  0  0  0  0  0  0  0  0  0
    1.6900   -2.5450    0.6790 N   0  0  0  0  0  0  0  0  0  0  0  0
   -4.5700    0.1530    0.6080 N   0  0  0  0  0  0  0  0  0  0  0  0
   -6.4540    1.2640    1.4680 N   0  0  3  0  0  0  0  0  0  0  0  0
   -6.1460   -0.1040   -2.9970 O   0  0  0  0  0  0  0  0  0  0  0  0
    8.1010    1.2730   -0.5350 O   0  0  0  0  0  0  0  0  0  0  0  0
   -0.4840   -3.2440    0.5990 O   0  0  0  0  0  0  0  0  0  0  0  0
    3.7080    2.2270   -0.1300 H   0  0  0  0  0  0  0  0  0  0  0  0
   -7.6290    2.1430   -1.6000 H   0  0  0  0  0  0  0  0  0  0  0  0
   -8.2820    0.4990   -1.7780 H   0  0  0  0  0  0  0  0  0  0  0  0
   -2.3530   -1.3020   -2.1760 H   0  0  0  0  0  0  0  0  0  0  0  0
   -1.7220   -2.5620   -1.0860 H   0  0  0  0  0  0  0  0  0  0  0  0
   -0.6120    0.2580   -1.4600 H   0  0  0  0  0  0  0  0  0  0  0  0
    0.1630   -1.2660   -1.9550 H   0  0  0  0  0  0  0  0  0  0  0  0
    6.0640   -0.1940   -1.4940 H   0  0  0  0  0  0  0  0  0  0  0  0
    6.1560   -1.4420   -0.2280 H   0  0  0  0  0  0  0  0  0  0  0  0
    8.1590   -0.3690    0.7200 H   0  0  0  0  0  0  0  0  0  0  0  0
    8.3440   -0.7000   -2.3090 H   0  0  0  0  0  0  0  0  0  0  0  0
    9.7130   -0.7550   -1.1740 H   0  0  0  0  0  0  0  0  0  0  0  0
    8.4560   -2.0140   -1.1140 H   0  0  0  0  0  0  0  0  0  0  0  0
    7.6660    1.9580    1.3660 H   0  0  0  0  0  0  0  0  0  0  0  0
    7.3900    3.7880   -1.0610 H   0  0  0  0  0  0  0  0  0  0  0  0
    7.1290    4.2650    0.6330 H   0  0  0  0  0  0  0  0  0  0  0  0
    8.7520    3.7830    0.0840 H   0  0  0  0  0  0  0  0  0  0  0  0
    5.3190    2.5100    0.8710 H   0  0  0  0  0  0  0  0  0  0  0  0
    5.5720    2.1270   -0.8490 H   0  0  0  0  0  0  0  0  0  0  0  0
    4.4500   -1.8730    0.8260 H   0  0  0  0  0  0  0  0  0  0  0  0
    1.5550   -4.5940    1.1020 H   0  0  0  0  0  0  0  0  0  0  0  0
    3.0290   -4.0970    0.2370 H   0  0  0  0  0  0  0  0  0  0  0  0
    2.8450   -3.7270    1.9690 H   0  0  0  0  0  0  0  0  0  0  0  0
   -0.2820   -0.3760    2.2040 H   0  0  0  0  0  0  0  0  0  0  0  0
   -0.8730    0.7830    0.9890 H   0  0  0  0  0  0  0  0  0  0  0  0
   -2.0060   -1.9930    1.5710 H   0  0  0  0  0  0  0  0  0  0  0  0
   -2.7880   -0.4290    1.9090 H   0  0  0  0  0  0  0  0  0  0  0  0
   -6.4660    0.1940    3.2720 H   0  0  0  0  0  0  0  0  0  0  0  0
   -4.9030    0.9260    2.8390 H   0  0  0  0  0  0  0  0  0  0  0  0
   -6.2300    1.9500    3.4370 H   0  0  0  0  0  0  0  0  0  0  0  0
   -7.3290    3.0470    0.7740 H   0  0  0  0  0  0  0  0  0  0  0  0
   -8.1920    2.2560    2.1190 H   0  0  0  0  0  0  0  0  0  0  0  0
   -9.4260    1.9080   -0.0010 H   0  0  0  0  0  0  0  0  0  0  0  0
   -8.7730    0.3570    0.5870 H   0  0  0  0  0  0  0  0  0  0  0  0
   -3.9380   -0.9630   -2.3260 H   0  0  0  0  0  0  0  0  0  0  0  0
  6 27  1  0  0  0  0
 26 27  1  0  0  0  0
  6  7  1  0  0  0  0
 26 34  1  0  0  0  0
  8 35  2  0  0  0  0
  7  8  1  0  0  0  0
  7 24  2  0  0  0  0
  8 29  1  0  0  0  0
 24 34  1  0  0  0  0
 25 34  1  0  0  0  0
 24 33  1  0  0  0  0
  9 29  1  0  0  0  0
  9 33  2  0  0  0  0
  9 30  1  0  0  0  0
 10 30  1  0  0  0  0
 23 30  1  0  0  0  0
 10 11  1  0  0  0  0
 22 23  1  0  0  0  0
  1 11  1  0  0  0  0
  1 22  1  0  0  0  0
 21 37  2  0  0  0  0
  1 21  1  0  0  0  0
  1  2  1  0  0  0  0
 21 32  1  0  0  0  0
  3 28  1  0  0  0  0
  2  3  2  0  0  0  0
  2 19  1  0  0  0  0
 20 32  1  0  0  0  0
 19 32  1  0  0  0  0
  3  4  1  0  0  0  0
 18 19  2  0  0  0  0
  4  5  2  0  0  0  0
  5 18  1  0  0  0  0
  5 31  1  0  0  0  0
 17 31  1  0  0  0  0
 12 31  1  0  0  0  0
 15 17  1  0  0  0  0
 12 13  1  0  0  0  0
 15 16  1  0  0  0  0
 15 36  1  0  0  0  0
 13 36  1  0  0  0  0
 13 14  1  0  0  0  0
  4 38  1  0  0  0  0
  6 39  1  0  0  0  0
  6 40  1  0  0  0  0
 10 41  1  0  0  0  0
 10 42  1  0  0  0  0
 11 43  1  0  0  0  0
 11 44  1  0  0  0  0
 12 45  1  0  0  0  0
 12 46  1  0  0  0  0
 13 47  1  0  0  0  0
 14 48  1  0  0  0  0
 14 49  1  0  0  0  0
 14 50  1  0  0  0  0
 15 51  1  0  0  0  0
 16 52  1  0  0  0  0
 16 53  1  0  0  0  0
 16 54  1  0  0  0  0
 17 55  1  0  0  0  0
 17 56  1  0  0  0  0
 18 57  1  0  0  0  0
 20 58  1  0  0  0  0
 20 59  1  0  0  0  0
 20 60  1  0  0  0  0
 22 61  1  0  0  0  0
 22 62  1  0  0  0  0
 23 63  1  0  0  0  0
 23 64  1  0  0  0  0
 25 65  1  0  0  0  0
 25 66  1  0  0  0  0
 25 67  1  0  0  0  0
 26 68  1  0  0  0  0
 26 69  1  0  0  0  0
 27 70  1  0  0  0  0
 27 71  1  0  0  0  0
 29 72  1  0  0  0  0
M  END
> <OPENEYE_ISO_SMILES>
C[C@@H]1CN(C[C@@H](O1)C)c2cc3c(c(c2)F)C4(CCN(CC4)c5[nH]c(=O)c6c(n5)N(CCC6)C)C(=O)N3C

> <OPENEYE_INCHI>
InChI=1S/C27H35FN6O3/c1-16-14-34(15-17(2)37-16)18-12-20(28)22-21(13-18)32(4)25(36)27(22)7-10-33(11-8-27)26-29-23-19(24(35)30-26)6-5-9-31(23)3/h12-13,16-17H,5-11,14-15H2,1-4H3,(H,29,30,35)/t16-,17+

> <OPENEYE_INCHIKEY>
KZUPFZKALLNBBV-CALCHBBNSA-N

> <FORMULA>
C27H35FN6O3

$$$$
