LZ9
  -OEChem-11082419103D

 37 39  0     0  0  0  0  0  0999 V2000
   33.2340   10.5830   65.7540 F   0  0  0  0  0  0  0  0  0  0  0  0
   32.4260    9.5130   65.6500 C   0  0  0  0  0  0  0  0  0  0  0  0
   32.0540    8.8440   66.8020 C   0  0  0  0  0  0  0  0  0  0  0  0
   31.2350    7.7410   66.7010 C   0  0  0  0  0  0  0  0  0  0  0  0
   30.7800    7.3100   65.4460 C   0  0  0  0  0  0  0  0  0  0  0  0
   29.9150    6.1840   65.3460 N   0  0  0  0  0  0  0  0  0  0  0  0
   28.6570    6.2390   64.8540 C   0  0  0  0  0  0  0  0  0  0  0  0
   28.1460    7.2840   64.4760 O   0  0  0  0  0  0  0  0  0  0  0  0
   27.9360    4.9630   64.7090 C   0  0  0  0  0  0  0  0  0  0  0  0
   28.2450    3.8760   65.3680 N   0  0  0  0  0  0  0  0  0  0  0  0
   27.3670    2.9370   64.9340 N   0  0  0  0  0  0  0  0  0  0  0  0
   26.5290    3.4120   64.0370 C   0  0  0  0  0  0  0  0  0  0  0  0
   26.8610    4.7170   63.8500 C   0  0  0  0  0  0  0  0  0  0  0  0
   26.3230    5.6650   62.9980 N   0  0  0  0  0  0  0  0  0  0  0  0
   25.3590    5.4440   62.0910 C   0  0  0  0  0  0  0  0  0  0  0  0
   24.8160    4.3350   61.9680 O   0  0  0  0  0  0  0  0  0  0  0  0
   24.9340    6.6420   61.2760 C   0  0  0  0  0  0  0  0  0  0  0  0
   23.6620    7.2140   61.4280 C   0  0  0  0  0  0  0  0  0  0  0  0
   22.8030    6.6410   62.2940 F   0  0  0  0  0  0  0  0  0  0  0  0
   23.2730    8.3500   60.7090 C   0  0  0  0  0  0  0  0  0  0  0  0
   24.1670    8.9450   59.8200 C   0  0  0  0  0  0  0  0  0  0  0  0
   25.4390    8.4030   59.6460 C   0  0  0  0  0  0  0  0  0  0  0  0
   25.8140    7.2760   60.3750 C   0  0  0  0  0  0  0  0  0  0  0  0
   27.0490    6.7750   60.2190 F   0  0  0  0  0  0  0  0  0  0  0  0
   31.1590    8.0160   64.2930 C   0  0  0  0  0  0  0  0  0  0  0  0
   31.9900    9.1160   64.3970 C   0  0  0  0  0  0  0  0  0  0  0  0
   32.4010    9.1820   67.7670 H   0  0  0  0  0  0  0  0  0  0  0  0
   32.2950    9.6580   63.5140 H   0  0  0  0  0  0  0  0  0  0  0  0
   30.9420    7.2060   67.5920 H   0  0  0  0  0  0  0  0  0  0  0  0
   30.2590    5.2990   65.6590 H   0  0  0  0  0  0  0  0  0  0  0  0
   30.8010    7.7000   63.3240 H   0  0  0  0  0  0  0  0  0  0  0  0
   25.7340    2.8710   63.5460 H   0  0  0  0  0  0  0  0  0  0  0  0
   22.2840    8.7640   60.8420 H   0  0  0  0  0  0  0  0  0  0  0  0
   23.8740    9.8250   59.2670 H   0  0  0  0  0  0  0  0  0  0  0  0
   26.1310    8.8540   58.9500 H   0  0  0  0  0  0  0  0  0  0  0  0
   27.3580    1.9910   65.2590 H   0  0  0  0  0  0  0  0  0  0  0  0
   26.6840    6.5950   63.0640 H   0  0  0  0  0  0  0  0  0  0  0  0
  1  2  1  0  0  0  0
  2  3  1  0  0  0  0
  2 26  2  0  0  0  0
  3  4  2  0  0  0  0
  4  5  1  0  0  0  0
  5  6  1  0  0  0  0
  5 25  2  0  0  0  0
  6  7  1  0  0  0  0
  7  8  2  0  0  0  0
  7  9  1  0  0  0  0
  9 10  2  0  0  0  0
  9 13  1  0  0  0  0
 10 11  1  0  0  0  0
 11 12  1  0  0  0  0
 12 13  2  0  0  0  0
 13 14  1  0  0  0  0
 14 15  1  0  0  0  0
 15 16  2  0  0  0  0
 15 17  1  0  0  0  0
 17 18  1  0  0  0  0
 17 23  2  0  0  0  0
 18 19  1  0  0  0  0
 18 20  2  0  0  0  0
 20 21  1  0  0  0  0
 21 22  2  0  0  0  0
 22 23  1  0  0  0  0
 23 24  1  0  0  0  0
 25 26  1  0  0  0  0
  3 27  1  0  0  0  0
 26 28  1  0  0  0  0
  4 29  1  0  0  0  0
  6 30  1  0  0  0  0
 25 31  1  0  0  0  0
 12 32  1  0  0  0  0
 20 33  1  0  0  0  0
 21 34  1  0  0  0  0
 22 35  1  0  0  0  0
 11 36  1  0  0  0  0
 14 37  1  0  0  0  0
M  END
> <OPENEYE_ISO_SMILES>
c1cc(c(c(c1)F)C(=O)Nc2c[nH]nc2C(=O)Nc3ccc(cc3)F)F

> <OPENEYE_INCHI>
InChI=1S/C17H11F3N4O2/c18-9-4-6-10(7-5-9)22-17(26)15-13(8-21-24-15)23-16(25)14-11(19)2-1-3-12(14)20/h1-8H,(H,21,24)(H,22,26)(H,23,25)

> <OPENEYE_INCHIKEY>
BDRDBXXWQDFXEC-UHFFFAOYSA-N

> <FORMULA>
C17H11F3N4O2

$$$$
