2ZF
  -OEChem-11082419093D

 68 67  0     1  0  0  0  0  0999 V2000
    5.1600   -0.2260    1.0200 O   0  0  0  0  0  0  0  0  0  0  0  0
    4.9390   -0.7090   -0.0730 C   0  0  0  0  0  0  0  0  0  0  0  0
    5.9570   -1.1710   -0.8240 O   0  0  0  0  0  0  0  0  0  0  0  0
    7.2920   -1.0590   -0.2640 C   0  0  0  0  0  0  0  0  0  0  0  0
    7.3610   -1.8420    1.0490 C   0  0  0  0  0  0  0  0  0  0  0  0
    8.3090   -1.6320   -1.2530 C   0  0  0  0  0  0  0  0  0  0  0  0
    7.6120    0.4130    0.0030 C   0  0  0  0  0  0  0  0  0  0  0  0
    3.6740   -0.7870   -0.5320 N   0  0  0  0  0  0  0  0  0  0  0  0
    2.5660   -0.2900    0.2870 C   0  0  2  0  0  0  0  0  0  0  0  0
    1.2950   -1.0010   -0.1030 C   0  0  0  0  0  0  0  0  0  0  0  0
    1.3130   -1.8390   -0.9790 O   0  0  0  0  0  0  0  0  0  0  0  0
    2.3990    1.2140    0.0610 C   0  0  0  0  0  0  0  0  0  0  0  0
    3.6400    1.9470    0.5730 C   0  0  0  0  0  0  0  0  0  0  0  0
    3.4760    3.4280    0.3500 C   0  0  0  0  0  0  0  0  0  0  0  0
    2.4690    3.8540   -0.1650 O   0  0  0  0  0  0  0  0  0  0  0  0
    4.4480    4.2750    0.7240 O   0  0  0  0  0  0  0  0  0  0  0  0
    0.1380   -0.7040    0.5220 N   0  0  0  0  0  0  0  0  0  0  0  0
   -1.1150   -1.3120    0.0690 C   0  0  2  0  0  0  0  0  0  0  0  0
   -2.2640   -0.3860    0.3790 C   0  0  0  0  0  0  0  0  0  0  0  0
   -2.1000    0.5540    1.1270 O   0  0  0  0  0  0  0  0  0  0  0  0
   -1.3260   -2.6450    0.7920 C   0  0  0  0  0  0  0  0  0  0  0  0
   -2.5530   -3.3510    0.2130 C   0  0  0  0  0  0  0  0  0  0  0  0
   -2.2760   -3.7480   -1.2380 C   0  0  0  0  0  0  0  0  0  0  0  0
   -2.8560   -4.6040    1.0360 C   0  0  0  0  0  0  0  0  0  0  0  0
   -3.4730   -0.6030   -0.1760 N   0  0  0  0  0  0  0  0  0  0  0  0
   -4.5570    0.3590    0.0320 C   0  0  2  0  0  0  0  0  0  0  0  0
   -5.8840   -0.3380   -0.1230 C   0  0  0  0  0  0  0  0  0  0  0  0
   -5.9360   -1.4290   -0.6390 O   0  0  0  0  0  0  0  0  0  0  0  0
   -4.4480    1.4830   -1.0000 C   0  0  0  0  0  0  0  0  0  0  0  0
   -3.1570    2.2700   -0.7630 C   0  0  0  0  0  0  0  0  0  0  0  0
   -2.9990    3.2230   -1.7740 F   0  0  0  0  0  0  0  0  0  0  0  0
   -3.2250    2.9130    0.4780 F   0  0  0  0  0  0  0  0  0  0  0  0
   -7.1320    0.3180    0.3600 C   0  0  0  0  0  0  0  0  0  0  0  0
   -8.3170   -0.3040    0.2210 O   0  0  0  0  0  0  0  0  0  0  0  0
   -7.0800    1.4140    0.8780 O   0  0  0  0  0  0  0  0  0  0  0  0
    7.1330   -2.8910    0.8600 H   0  0  0  0  0  0  0  0  0  0  0  0
    8.3630   -1.7590    1.4700 H   0  0  0  0  0  0  0  0  0  0  0  0
    6.6360   -1.4340    1.7540 H   0  0  0  0  0  0  0  0  0  0  0  0
    8.2600   -1.0740   -2.1880 H   0  0  0  0  0  0  0  0  0  0  0  0
    9.3110   -1.5480   -0.8320 H   0  0  0  0  0  0  0  0  0  0  0  0
    8.0810   -2.6810   -1.4420 H   0  0  0  0  0  0  0  0  0  0  0  0
    6.8870    0.8210    0.7080 H   0  0  0  0  0  0  0  0  0  0  0  0
    8.6140    0.4960    0.4230 H   0  0  0  0  0  0  0  0  0  0  0  0
    7.5630    0.9700   -0.9320 H   0  0  0  0  0  0  0  0  0  0  0  0
    3.4970   -1.1720   -1.4050 H   0  0  0  0  0  0  0  0  0  0  0  0
    2.7790   -0.4780    1.3390 H   0  0  0  0  0  0  0  0  0  0  0  0
    2.2740    1.4100   -1.0040 H   0  0  0  0  0  0  0  0  0  0  0  0
    1.5200    1.5670    0.6010 H   0  0  0  0  0  0  0  0  0  0  0  0
    3.7650    1.7510    1.6380 H   0  0  0  0  0  0  0  0  0  0  0  0
    4.5190    1.5940    0.0330 H   0  0  0  0  0  0  0  0  0  0  0  0
    4.2980    5.2160    0.5610 H   0  0  0  0  0  0  0  0  0  0  0  0
    0.1350   -0.0870    1.2710 H   0  0  0  0  0  0  0  0  0  0  0  0
   -1.0680   -1.4860   -1.0060 H   0  0  0  0  0  0  0  0  0  0  0  0
   -0.4460   -3.2740    0.6560 H   0  0  0  0  0  0  0  0  0  0  0  0
   -1.4800   -2.4610    1.8550 H   0  0  0  0  0  0  0  0  0  0  0  0
   -3.4100   -2.6780    0.2480 H   0  0  0  0  0  0  0  0  0  0  0  0
   -3.1740   -4.1850   -1.6730 H   0  0  0  0  0  0  0  0  0  0  0  0
   -1.9880   -2.8650   -1.8080 H   0  0  0  0  0  0  0  0  0  0  0  0
   -1.4670   -4.4780   -1.2660 H   0  0  0  0  0  0  0  0  0  0  0  0
   -3.0540   -4.3210    2.0700 H   0  0  0  0  0  0  0  0  0  0  0  0
   -3.7300   -5.1070    0.6240 H   0  0  0  0  0  0  0  0  0  0  0  0
   -1.9990   -5.2780    1.0020 H   0  0  0  0  0  0  0  0  0  0  0  0
   -3.6240   -1.3960   -0.7130 H   0  0  0  0  0  0  0  0  0  0  0  0
   -4.4830    0.7790    1.0350 H   0  0  0  0  0  0  0  0  0  0  0  0
   -4.4330    1.0550   -2.0030 H   0  0  0  0  0  0  0  0  0  0  0  0
   -5.3030    2.1510   -0.9030 H   0  0  0  0  0  0  0  0  0  0  0  0
   -2.3080    1.5860   -0.7720 H   0  0  0  0  0  0  0  0  0  0  0  0
   -9.0990    0.1610    0.5490 H   0  0  0  0  0  0  0  0  0  0  0  0
  1  2  2  0  0  0  0
  2  3  1  0  0  0  0
  3  4  1  0  0  0  0
  4  5  1  0  0  0  0
  4  6  1  0  0  0  0
  4  7  1  0  0  0  0
  5 36  1  0  0  0  0
  5 37  1  0  0  0  0
  5 38  1  0  0  0  0
  6 39  1  0  0  0  0
  6 40  1  0  0  0  0
  6 41  1  0  0  0  0
  7 42  1  0  0  0  0
  7 43  1  0  0  0  0
  7 44  1  0  0  0  0
  8  9  1  0  0  0  0
  8 45  1  0  0  0  0
  9 10  1  0  0  0  0
  9 12  1  0  0  0  0
  9 46  1  0  0  0  0
 10 11  2  0  0  0  0
 12 13  1  0  0  0  0
 12 47  1  0  0  0  0
 12 48  1  0  0  0  0
 13 14  1  0  0  0  0
 13 49  1  0  0  0  0
 13 50  1  0  0  0  0
 14 15  2  0  0  0  0
 14 16  1  0  0  0  0
 16 51  1  0  0  0  0
 17 18  1  0  0  0  0
 17 52  1  0  0  0  0
 18 19  1  0  0  0  0
 18 21  1  0  0  0  0
 18 53  1  0  0  0  0
 19 20  2  0  0  0  0
 21 22  1  0  0  0  0
 21 54  1  0  0  0  0
 21 55  1  0  0  0  0
 22 23  1  0  0  0  0
 22 24  1  0  0  0  0
 22 56  1  0  0  0  0
 23 57  1  0  0  0  0
 23 58  1  0  0  0  0
 23 59  1  0  0  0  0
 24 60  1  0  0  0  0
 24 61  1  0  0  0  0
 24 62  1  0  0  0  0
 25 26  1  0  0  0  0
 25 63  1  0  0  0  0
 26 27  1  0  0  0  0
 26 29  1  0  0  0  0
 26 64  1  0  0  0  0
 27 28  2  0  0  0  0
 27 33  1  0  0  0  0
 29 30  1  0  0  0  0
 29 65  1  0  0  0  0
 29 66  1  0  0  0  0
 30 31  1  0  0  0  0
 30 32  1  0  0  0  0
 30 67  1  0  0  0  0
 33 34  1  0  0  0  0
 33 35  2  0  0  0  0
 34 68  1  0  0  0  0
  2  8  1  0  0  0  0
 10 17  1  0  0  0  0
 19 25  1  0  0  0  0
M  END
> <OPENEYE_ISO_SMILES>
CC(C)C[C@@H](C(=O)N[C@@H](CC(F)F)C(=O)C(=O)O)NC(=O)[C@H](CCC(=O)O)NC(=O)OC(C)(C)C

> <OPENEYE_INCHI>
InChI=1S/C21H33F2N3O9/c1-10(2)8-13(18(31)24-12(9-14(22)23)16(29)19(32)33)25-17(30)11(6-7-15(27)28)26-20(34)35-21(3,4)5/h10-14H,6-9H2,1-5H3,(H,24,31)(H,25,30)(H,26,34)(H,27,28)(H,32,33)/t11-,12-,13-/m0/s1

> <OPENEYE_INCHIKEY>
WXVMZATZAOHPFR-AVGNSLFASA-N

> <FORMULA>
C21H33F2N3O9

$$$$
