9H9
  -OEChem-11082419093D

 56 60  0     1  0  0  0  0  0999 V2000
    1.4790    0.0430    0.4950 C   0  0  0  0  0  0  0  0  0  0  0  0
    2.7240    0.7490    0.0140 C   0  0  0  0  0  0  0  0  0  0  0  0
    2.9190    1.9960   -0.5490 C   0  0  0  0  0  0  0  0  0  0  0  0
    4.1940    2.4090   -0.8990 C   0  0  0  0  0  0  0  0  0  0  0  0
    5.2740    1.5700   -0.6840 C   0  0  0  0  0  0  0  0  0  0  0  0
   -6.7370    0.4360   -0.0760 C   0  0  0  0  0  0  0  0  0  0  0  0
   -5.2640    0.1950    0.1150 C   0  0  0  0  0  0  0  0  0  0  0  0
   -4.6490    0.7220    1.2710 C   0  0  0  0  0  0  0  0  0  0  0  0
   -2.6240   -0.2030    0.5500 C   0  0  0  0  0  0  0  0  0  0  0  0
   -0.5270   -1.2900   -0.1570 C   0  0  0  0  0  0  0  0  0  0  0  0
    0.6850   -0.5110   -0.6820 C   0  0  0  0  0  0  0  0  0  0  0  0
    5.0830    0.3210   -0.1260 C   0  0  0  0  0  0  0  0  0  0  0  0
    3.8030   -0.1030    0.2270 C   0  0  0  0  0  0  0  0  0  0  0  0
    3.3690   -2.3840   -0.2230 C   0  0  0  0  0  0  0  0  0  0  0  0
    4.8060   -2.7410   -0.6060 C   0  0  0  0  0  0  0  0  0  0  0  0
    2.0300   -1.1090    1.3550 C   0  0  0  0  0  0  0  0  0  0  0  0
    0.6240    0.9750    1.3440 C   0  0  0  0  0  0  0  0  0  0  0  0
   -0.5890    0.2070    1.8810 C   0  0  0  0  0  0  0  0  0  0  0  0
   -4.5080   -0.5020   -0.7710 C   0  0  0  0  0  0  0  0  0  0  0  0
   -5.0720   -1.0830   -2.0410 C   0  0  0  0  0  0  0  0  0  0  0  0
   -6.5950   -1.1720   -1.9610 C   0  0  0  0  0  0  0  0  0  0  0  0
   -7.1360    0.1970   -1.5310 C   0  0  0  0  0  0  0  0  0  0  0  0
    1.8640    2.8130   -0.7570 F   0  0  0  0  0  0  0  0  0  0  0  0
    6.5180    1.9730   -1.0230 F   0  0  0  0  0  0  0  0  0  0  0  0
   -3.3320    0.5110    1.4670 N   0  0  0  0  0  0  0  0  0  0  0  0
   -1.2880   -0.4210    0.7520 N   0  0  0  0  0  0  0  0  0  0  0  0
    3.3810   -1.3160    0.7860 N   0  0  2  0  0  0  0  0  0  0  0  0
   -3.2040   -0.6850   -0.5270 N   0  0  0  0  0  0  0  0  0  0  0  0
   -5.3000    1.3600    2.0810 O   0  0  0  0  0  0  0  0  0  0  0  0
    5.4770   -3.2980    0.5260 O   0  0  0  0  0  0  0  0  0  0  0  0
    4.3450    3.3840   -1.3380 H   0  0  0  0  0  0  0  0  0  0  0  0
   -7.2980   -0.2430    0.5670 H   0  0  0  0  0  0  0  0  0  0  0  0
   -6.9710    1.4650    0.1960 H   0  0  0  0  0  0  0  0  0  0  0  0
   -1.1600   -1.5880   -0.9930 H   0  0  0  0  0  0  0  0  0  0  0  0
   -0.1870   -2.1760    0.3780 H   0  0  0  0  0  0  0  0  0  0  0  0
    0.3440    0.3130   -1.3100 H   0  0  0  0  0  0  0  0  0  0  0  0
    1.3190   -1.1760   -1.2680 H   0  0  0  0  0  0  0  0  0  0  0  0
    5.9290   -0.3300    0.0380 H   0  0  0  0  0  0  0  0  0  0  0  0
    2.8310   -2.0430   -1.1070 H   0  0  0  0  0  0  0  0  0  0  0  0
    2.8730   -3.2650    0.1860 H   0  0  0  0  0  0  0  0  0  0  0  0
    4.7970   -3.4690   -1.4170 H   0  0  0  0  0  0  0  0  0  0  0  0
    5.3290   -1.8410   -0.9320 H   0  0  0  0  0  0  0  0  0  0  0  0
    2.0930   -0.8140    2.4030 H   0  0  0  0  0  0  0  0  0  0  0  0
    1.4200   -2.0050    1.2400 H   0  0  0  0  0  0  0  0  0  0  0  0
    1.2150    1.3510    2.1780 H   0  0  0  0  0  0  0  0  0  0  0  0
    0.2830    1.8120    0.7340 H   0  0  0  0  0  0  0  0  0  0  0  0
   -0.2550   -0.5610    2.5780 H   0  0  0  0  0  0  0  0  0  0  0  0
   -1.2620    0.8970    2.3910 H   0  0  0  0  0  0  0  0  0  0  0  0
   -4.7920   -0.4480   -2.8820 H   0  0  0  0  0  0  0  0  0  0  0  0
   -4.6610   -2.0810   -2.1930 H   0  0  0  0  0  0  0  0  0  0  0  0
   -6.9980   -1.4360   -2.9380 H   0  0  0  0  0  0  0  0  0  0  0  0
   -6.8800   -1.9270   -1.2290 H   0  0  0  0  0  0  0  0  0  0  0  0
   -8.2230    0.2060   -1.6200 H   0  0  0  0  0  0  0  0  0  0  0  0
   -6.7090    0.9760   -2.1620 H   0  0  0  0  0  0  0  0  0  0  0  0
   -2.8920    0.8650    2.2560 H   0  0  0  0  0  0  0  0  0  0  0  0
    6.3960   -3.5470    0.3560 H   0  0  0  0  0  0  0  0  0  0  0  0
  6 22  1  0  0  0  0
 21 22  1  0  0  0  0
  6  7  1  0  0  0  0
 20 21  1  0  0  0  0
  8 29  2  0  0  0  0
  7  8  1  0  0  0  0
  7 19  2  0  0  0  0
  8 25  1  0  0  0  0
 19 20  1  0  0  0  0
 19 28  1  0  0  0  0
  9 25  1  0  0  0  0
  9 28  2  0  0  0  0
  9 26  1  0  0  0  0
 10 26  1  0  0  0  0
 18 26  1  0  0  0  0
 10 11  1  0  0  0  0
 17 18  1  0  0  0  0
  1 11  1  0  0  0  0
  1 17  1  0  0  0  0
  1 16  1  0  0  0  0
  1  2  1  0  0  0  0
 16 27  1  0  0  0  0
  3 23  1  0  0  0  0
  2  3  2  0  0  0  0
  2 13  1  0  0  0  0
  3  4  1  0  0  0  0
 13 27  1  0  0  0  0
 14 27  1  0  0  0  0
 12 13  2  0  0  0  0
 15 30  1  0  0  0  0
 14 15  1  0  0  0  0
  4  5  2  0  0  0  0
  5 12  1  0  0  0  0
  5 24  1  0  0  0  0
  4 31  1  0  0  0  0
  6 32  1  0  0  0  0
  6 33  1  0  0  0  0
 10 34  1  0  0  0  0
 10 35  1  0  0  0  0
 11 36  1  0  0  0  0
 11 37  1  0  0  0  0
 12 38  1  0  0  0  0
 14 39  1  0  0  0  0
 14 40  1  0  0  0  0
 15 41  1  0  0  0  0
 15 42  1  0  0  0  0
 16 43  1  0  0  0  0
 16 44  1  0  0  0  0
 17 45  1  0  0  0  0
 17 46  1  0  0  0  0
 18 47  1  0  0  0  0
 18 48  1  0  0  0  0
 20 49  1  0  0  0  0
 20 50  1  0  0  0  0
 21 51  1  0  0  0  0
 21 52  1  0  0  0  0
 22 53  1  0  0  0  0
 22 54  1  0  0  0  0
 25 55  1  0  0  0  0
 30 56  1  0  0  0  0
M  END
> <OPENEYE_ISO_SMILES>
c1c(cc(c2c1[N@@](CC23CCN(CC3)c4[nH]c(=O)c5c(n4)CCCC5)CCO)F)F

> <OPENEYE_INCHI>
InChI=1S/C22H26F2N4O2/c23-14-11-16(24)19-18(12-14)28(9-10-29)13-22(19)5-7-27(8-6-22)21-25-17-4-2-1-3-15(17)20(30)26-21/h11-12,29H,1-10,13H2,(H,25,26,30)

> <OPENEYE_INCHIKEY>
FZQYCOUBRJEYBC-UHFFFAOYSA-N

> <FORMULA>
C22H26F2N4O2

$$$$
