I5S
  -OEChem-11082419103D

 50 52  0     0  0  0  0  0  0999 V2000
    8.4680   -2.4110   -0.1660 Cl  0  0  0  0  0  0  0  0  0  0  0  0
    7.3670   -1.1120    0.1730 C   0  0  0  0  0  0  0  0  0  0  0  0
    7.4770    0.0850   -0.5110 C   0  0  0  0  0  0  0  0  0  0  0  0
    6.6010    1.1190   -0.2410 C   0  0  0  0  0  0  0  0  0  0  0  0
    5.6140    0.9570    0.7140 C   0  0  0  0  0  0  0  0  0  0  0  0
    4.6590    2.0840    1.0080 C   0  0  0  0  0  0  0  0  0  0  0  0
    3.5170    1.9770    0.1550 O   0  0  0  0  0  0  0  0  0  0  0  0
    2.6540    3.0680    0.4810 C   0  0  0  0  0  0  0  0  0  0  0  0
    1.4060    3.0120   -0.4010 C   0  0  0  0  0  0  0  0  0  0  0  0
    0.6370    1.8000   -0.0860 N   0  0  0  0  0  0  0  0  0  0  0  0
   -0.5410    1.8080   -0.9630 C   0  0  0  0  0  0  0  0  0  0  0  0
   -1.3910    0.5660   -0.6860 C   0  0  0  0  0  0  0  0  0  0  0  0
   -2.5660    0.5740   -1.5610 N   0  0  0  0  0  0  0  0  0  0  0  0
   -3.4560   -0.8080   -1.7640 S   0  0  0  0  0  0  0  0  0  0  0  0
   -2.5130   -1.8380   -2.0300 O   0  0  0  0  0  0  0  0  0  0  0  0
   -4.5410   -0.4490   -2.6090 O   0  0  0  0  0  0  0  0  0  0  0  0
   -4.1740   -1.2070   -0.2060 C   0  0  0  0  0  0  0  0  0  0  0  0
   -3.8300   -2.3590    0.4350 C   0  0  0  0  0  0  0  0  0  0  0  0
   -4.3880   -2.6900    1.6680 C   0  0  0  0  0  0  0  0  0  0  0  0
   -5.2940   -1.8720    2.2710 C   0  0  0  0  0  0  0  0  0  0  0  0
   -5.6730   -0.6760    1.6420 C   0  0  0  0  0  0  0  0  0  0  0  0
   -6.6030    0.2060    2.2160 C   0  0  0  0  0  0  0  0  0  0  0  0
   -6.9270    1.3130    1.5890 N   0  0  0  0  0  0  0  0  0  0  0  0
   -6.4100    1.6510    0.4160 C   0  0  0  0  0  0  0  0  0  0  0  0
   -5.5010    0.8640   -0.2240 C   0  0  0  0  0  0  0  0  0  0  0  0
   -5.1000   -0.3380    0.3880 C   0  0  0  0  0  0  0  0  0  0  0  0
    5.5030   -0.2400    1.3980 C   0  0  0  0  0  0  0  0  0  0  0  0
    6.3750   -1.2760    1.1240 C   0  0  0  0  0  0  0  0  0  0  0  0
    8.2490    0.2120   -1.2570 H   0  0  0  0  0  0  0  0  0  0  0  0
    6.6870    2.0530   -0.7750 H   0  0  0  0  0  0  0  0  0  0  0  0
    4.3410    2.0280    2.0500 H   0  0  0  0  0  0  0  0  0  0  0  0
    5.1560    3.0380    0.8320 H   0  0  0  0  0  0  0  0  0  0  0  0
    2.3620    2.9990    1.5290 H   0  0  0  0  0  0  0  0  0  0  0  0
    3.1770    4.0090    0.3110 H   0  0  0  0  0  0  0  0  0  0  0  0
    0.7900    3.8920   -0.2160 H   0  0  0  0  0  0  0  0  0  0  0  0
    1.7030    2.9910   -1.4500 H   0  0  0  0  0  0  0  0  0  0  0  0
    1.2040    1.0150   -0.3690 H   0  0  0  0  0  0  0  0  0  0  0  0
   -1.1320    2.7030   -0.7700 H   0  0  0  0  0  0  0  0  0  0  0  0
   -0.2190    1.8030   -2.0050 H   0  0  0  0  0  0  0  0  0  0  0  0
   -0.8000   -0.3290   -0.8790 H   0  0  0  0  0  0  0  0  0  0  0  0
   -1.7130    0.5720    0.3550 H   0  0  0  0  0  0  0  0  0  0  0  0
   -2.8230    1.3880   -2.0210 H   0  0  0  0  0  0  0  0  0  0  0  0
   -3.1130   -3.0270   -0.0210 H   0  0  0  0  0  0  0  0  0  0  0  0
   -4.0970   -3.6100    2.1520 H   0  0  0  0  0  0  0  0  0  0  0  0
   -5.7190   -2.1420    3.2270 H   0  0  0  0  0  0  0  0  0  0  0  0
   -7.0520   -0.0260    3.1700 H   0  0  0  0  0  0  0  0  0  0  0  0
   -6.7190    2.5770   -0.0470 H   0  0  0  0  0  0  0  0  0  0  0  0
   -5.0930    1.1580   -1.1790 H   0  0  0  0  0  0  0  0  0  0  0  0
    4.7320   -0.3660    2.1430 H   0  0  0  0  0  0  0  0  0  0  0  0
    6.2890   -2.2110    1.6580 H   0  0  0  0  0  0  0  0  0  0  0  0
  1  2  1  0  0  0  0
  2  3  2  0  0  0  0
  2 28  1  0  0  0  0
  3  4  1  0  0  0  0
  3 29  1  0  0  0  0
  4  5  2  0  0  0  0
  4 30  1  0  0  0  0
  5  6  1  0  0  0  0
  5 27  1  0  0  0  0
  6  7  1  0  0  0  0
  6 31  1  0  0  0  0
  6 32  1  0  0  0  0
  7  8  1  0  0  0  0
  8  9  1  0  0  0  0
  8 33  1  0  0  0  0
  8 34  1  0  0  0  0
  9 10  1  0  0  0  0
  9 35  1  0  0  0  0
  9 36  1  0  0  0  0
 10 11  1  0  0  0  0
 10 37  1  0  0  0  0
 11 12  1  0  0  0  0
 11 38  1  0  0  0  0
 11 39  1  0  0  0  0
 12 13  1  0  0  0  0
 12 40  1  0  0  0  0
 12 41  1  0  0  0  0
 13 14  1  0  0  0  0
 13 42  1  0  0  0  0
 14 15  2  0  0  0  0
 14 16  2  0  0  0  0
 14 17  1  0  0  0  0
 17 18  2  0  0  0  0
 17 26  1  0  0  0  0
 18 19  1  0  0  0  0
 18 43  1  0  0  0  0
 19 20  2  0  0  0  0
 19 44  1  0  0  0  0
 20 21  1  0  0  0  0
 20 45  1  0  0  0  0
 21 22  2  0  0  0  0
 21 26  1  0  0  0  0
 22 23  1  0  0  0  0
 22 46  1  0  0  0  0
 23 24  2  0  0  0  0
 24 25  1  0  0  0  0
 24 47  1  0  0  0  0
 25 26  2  0  0  0  0
 25 48  1  0  0  0  0
 27 28  2  0  0  0  0
 27 49  1  0  0  0  0
 28 50  1  0  0  0  0
M  END
> <OPENEYE_ISO_SMILES>
c1cc2cnccc2c(c1)S(=O)(=O)NCCNCCOCc3ccc(cc3)Cl

> <OPENEYE_INCHI>
InChI=1S/C20H22ClN3O3S/c21-18-6-4-16(5-7-18)15-27-13-12-22-10-11-24-28(25,26)20-3-1-2-17-14-23-9-8-19(17)20/h1-9,14,22,24H,10-13,15H2

> <OPENEYE_INCHIKEY>
AUHWQSZMVMMRLM-UHFFFAOYSA-N

> <FORMULA>
C20H22ClN3O3S

$$$$
