Y27
  -OEChem-11082419103D

 39 40  0     1  0  0  0  0  0999 V2000
   -1.5340    0.1140   -1.2150 O   0  0  0  0  0  0  0  0  0  0  0  0
   -0.4200    0.3540   -0.8010 C   0  0  0  0  0  0  0  0  0  0  0  0
   -0.1900    0.5510    0.6750 C   0  0  0  0  0  0  0  0  0  0  0  0
   -1.5170    0.3960    1.4220 C   0  0  0  0  0  0  0  0  0  0  0  0
   -1.2840    0.5960    2.9210 C   0  0  0  0  0  0  0  0  0  0  0  0
   -0.2900   -0.4500    3.4260 C   0  0  0  0  0  0  0  0  0  0  0  0
    1.0360   -0.2960    2.6790 C   0  0  0  0  0  0  0  0  0  0  0  0
    0.8030   -0.4950    1.1800 C   0  0  0  0  0  0  0  0  0  0  0  0
   -0.0570   -0.2500    4.9250 C   0  0  1  0  0  0  0  0  0  0  0  0
    0.9370   -1.2970    5.4310 C   0  0  0  0  0  0  0  0  0  0  0  0
    0.4840    1.0930    5.1620 N   0  0  0  0  0  0  0  0  0  0  0  0
    0.6130    0.4450   -1.6610 N   0  0  0  0  0  0  0  0  0  0  0  0
    0.4240    0.1510   -3.0120 C   0  0  0  0  0  0  0  0  0  0  0  0
   -0.4920   -0.8200   -3.4110 C   0  0  0  0  0  0  0  0  0  0  0  0
   -0.6520   -1.0770   -4.7570 C   0  0  0  0  0  0  0  0  0  0  0  0
    0.0550   -0.4250   -5.6600 N   0  0  0  0  0  0  0  0  0  0  0  0
    0.9360    0.4960   -5.3220 C   0  0  0  0  0  0  0  0  0  0  0  0
    1.1520    0.8160   -3.9970 C   0  0  0  0  0  0  0  0  0  0  0  0
    0.2110    1.5480    0.8500 H   0  0  0  0  0  0  0  0  0  0  0  0
   -1.9190   -0.6010    1.2460 H   0  0  0  0  0  0  0  0  0  0  0  0
   -2.2250    1.1420    1.0620 H   0  0  0  0  0  0  0  0  0  0  0  0
   -2.2290    0.4860    3.4530 H   0  0  0  0  0  0  0  0  0  0  0  0
   -0.8820    1.5940    3.0960 H   0  0  0  0  0  0  0  0  0  0  0  0
   -0.6920   -1.4480    3.2510 H   0  0  0  0  0  0  0  0  0  0  0  0
    1.4380    0.7010    2.8550 H   0  0  0  0  0  0  0  0  0  0  0  0
    1.7450   -1.0420    3.0400 H   0  0  0  0  0  0  0  0  0  0  0  0
    0.4010   -1.4930    1.0050 H   0  0  0  0  0  0  0  0  0  0  0  0
    1.7480   -0.3860    0.6480 H   0  0  0  0  0  0  0  0  0  0  0  0
   -1.0020   -0.3600    5.4570 H   0  0  0  0  0  0  0  0  0  0  0  0
    1.8820   -1.1870    4.8990 H   0  0  0  0  0  0  0  0  0  0  0  0
    0.5350   -2.2950    5.2550 H   0  0  0  0  0  0  0  0  0  0  0  0
    1.1030   -1.1550    6.4990 H   0  0  0  0  0  0  0  0  0  0  0  0
    1.3540    1.1490    4.6530 H   0  0  0  0  0  0  0  0  0  0  0  0
   -0.1500    1.7430    4.7230 H   0  0  0  0  0  0  0  0  0  0  0  0
    1.4880    0.7140   -1.3410 H   0  0  0  0  0  0  0  0  0  0  0  0
   -1.0740   -1.3570   -2.6770 H   0  0  0  0  0  0  0  0  0  0  0  0
   -1.3640   -1.8250   -5.0750 H   0  0  0  0  0  0  0  0  0  0  0  0
    1.4950    1.0070   -6.0920 H   0  0  0  0  0  0  0  0  0  0  0  0
    1.8740    1.5730   -3.7270 H   0  0  0  0  0  0  0  0  0  0  0  0
  1  2  2  0  0  0  0
  2  3  1  0  0  0  0
  2 12  1  0  0  0  0
  3  4  1  0  0  0  0
  3  8  1  0  0  0  0
  3 19  1  0  0  0  0
  4  5  1  0  0  0  0
  4 20  1  0  0  0  0
  4 21  1  0  0  0  0
  5  6  1  0  0  0  0
  5 22  1  0  0  0  0
  5 23  1  0  0  0  0
  6  7  1  0  0  0  0
  6  9  1  0  0  0  0
  6 24  1  0  0  0  0
  7  8  1  0  0  0  0
  7 25  1  0  0  0  0
  7 26  1  0  0  0  0
  8 27  1  0  0  0  0
  8 28  1  0  0  0  0
  9 10  1  0  0  0  0
  9 11  1  0  0  0  0
  9 29  1  0  0  0  0
 10 30  1  0  0  0  0
 10 31  1  0  0  0  0
 10 32  1  0  0  0  0
 11 33  1  0  0  0  0
 11 34  1  0  0  0  0
 12 13  1  0  0  0  0
 12 35  1  0  0  0  0
 13 14  2  0  0  0  0
 13 18  1  0  0  0  0
 14 15  1  0  0  0  0
 14 36  1  0  0  0  0
 15 16  2  0  0  0  0
 15 37  1  0  0  0  0
 16 17  1  0  0  0  0
 17 18  2  0  0  0  0
 17 38  1  0  0  0  0
 18 39  1  0  0  0  0
M  END
> <OPENEYE_ISO_SMILES>
C[C@H](C1CCC(CC1)C(=O)Nc2ccncc2)N

> <OPENEYE_INCHI>
InChI=1S/C14H21N3O/c1-10(15)11-2-4-12(5-3-11)14(18)17-13-6-8-16-9-7-13/h6-12H,2-5,15H2,1H3,(H,16,17,18)/t10-,11-,12-/m1/s1

> <OPENEYE_INCHIKEY>
IYOZTVGMEWJPKR-IJLUTSLNSA-N

> <FORMULA>
C14H21N3O

$$$$
